         233
 CSIRO Nanostructure Databank - Neutral Graphene Oxide Data Set
C        -10.73889         0.79923         1.72709
C         -9.42629         1.52099         1.60690
C         -8.40740         0.82219         0.74782
C         -7.27342         1.49209         0.37140
C         -5.96902         0.74365         0.24656
C         -4.94444         1.40782        -0.62570
C         -3.74044         0.70666        -0.85655
C         -2.53695         1.38183        -1.26162
C         -1.29887         0.69490        -1.32138
C         -0.04670         1.35343        -1.56925
C          1.19532         0.63725        -1.50853
C          2.46444         1.43115        -1.46003
C          3.78837         0.71379        -1.46542
C          4.88102         1.30310        -0.65269
C          5.94213         0.56383        -0.20682
C          6.77172         1.08767         0.92049
C          7.84247         0.21767         1.43211
C          9.60612         1.39641         2.05041
C         10.77663         0.55172         1.88000
C         -9.48269         2.99676         1.36321
C         -8.38211         3.66675         0.87392
C         -7.22229         2.94341         0.37409
C         -6.16474         3.63701        -0.21170
C         -5.08611         2.84823        -0.88406
C         -3.86658         3.56201        -1.40585
C         -2.59205         2.80919        -1.65864
C         -1.31374         3.55637        -1.92715
C         -0.02033         2.80301        -1.79892
C          1.22008         3.57114        -1.35768
C          2.30774         2.73414        -0.68665
C          3.59068         3.52415        -0.53913
C          4.85793         2.78018        -0.45112
C          5.96951         3.44577         0.33832
C          6.83991         2.58081         1.20730
C          7.97570         3.27529         2.02854
C          9.36128         2.69026         1.72738
C         -8.30076         5.09757         0.91354
C         -7.23728         5.80747         0.39222
C         -6.15862         5.08722        -0.30329
C         -5.05272         5.73831        -0.89778
C         -3.76647         5.01452        -1.09347
C         -2.51129         5.76640        -1.40277
C         -1.24485         5.09726        -1.97152
C         -0.06004         5.70185        -1.21764
C          1.08099         4.98835        -0.97139
C          2.13760         5.47765         0.01481
C          3.52312         4.85817        -0.21736
C          4.69873         5.56082         0.27050
C          5.80519         4.86367         0.70100
C          6.92691         5.51446         1.37084
C          7.97153         4.77991         1.85920
C         -7.16657         7.21815         0.79349
C         -6.56940         8.18433         0.04629
C         -4.99082         7.15080        -1.09700
C         -3.82744         7.91552        -1.05138
C         -2.55555         7.28338        -1.58394
C         -1.28811         7.90568        -1.06489
C         -0.11455         7.13653        -0.90108
C          1.03528         7.78149        -0.38618
C          2.15657         7.00847         0.13287
C          3.43000         7.76491         0.42411
C          4.75331         7.06467         0.19420
C          5.84945         7.70452         1.01851
C          6.89146         6.96362         1.49773
C         -6.13255         9.52590         0.38491
C         -4.95041        10.02501        -0.07479
C         -3.82078         9.30838        -0.67554
C         -2.59798         9.97370        -0.60063
C         -1.32305         9.31304        -0.73361
C         -0.14027         9.98056        -0.46354
C          1.16340         9.26460        -0.64304
C          2.36064         9.94521        -0.03805
C          3.47352         9.25331         0.31159
C          4.69766         9.87772         0.78588
C          5.78649         9.14679         1.15733
C        -10.79423        -0.54515         1.64999
C         -9.68303        -1.34965         1.14943
C         -8.61414        -0.61841         0.35605
C         -7.31479        -1.38478         0.23882
C         -6.09942        -0.73255        -0.00737
C         -4.92006        -1.46255        -0.33779
C         -3.68716        -0.70553        -0.52090
C         -2.40356        -1.31508        -0.44797
C         -1.26519        -0.68321        -0.94768
C         -0.06529        -1.50788        -1.33032
C          1.22732        -0.74311        -1.34171
C          2.46541        -1.52962        -1.50735
C          3.77511        -0.78066        -1.65926
C          5.07272        -1.52590        -1.46230
C          6.25281        -0.78739        -0.76610
C          7.44599        -1.50863        -0.23420
C          8.27038        -0.93298         0.81427
C          9.56336        -1.55568         1.12404
C         10.69805        -0.78807         1.62646
C         -9.71203        -2.70455         1.12485
C         -8.75063        -3.46596         0.23767
C         -7.39802        -2.79138         0.18158
C         -6.24836        -3.52540        -0.09628
C         -5.03929        -2.89094        -0.44999
C         -3.93159        -3.78860        -0.80205
C         -2.14967        -2.54334         0.37948
C         -1.08041        -3.46303        -0.14114
C          0.00401        -2.88685        -0.71504
C          1.16873        -3.75178        -1.17431
C          2.48589        -2.97889        -1.15777
C          3.67871        -3.64709        -1.07717
C          4.96239        -2.99815        -1.33270
C          6.10493        -3.76539        -1.34259
C          7.85446        -2.73457        -0.72005
C          8.81398        -3.58133        -0.04597
C          9.78941        -2.86884         0.73341
C         -8.65711        -4.93728         0.55770
C         -7.51481        -5.66442         0.38915
C         -6.25515        -5.02989        -0.15131
C         -5.00691        -5.54559         0.58503
C         -3.77081        -4.95223        -0.05755
C         -2.46215        -5.50160         0.49351
C         -1.23809        -4.98367        -0.27669
C          0.06205        -5.69938         0.01506
C          1.24548        -5.06363        -0.41617
C          2.45672        -5.76163        -0.35876
C          3.69621        -5.15658        -0.96443
C          4.94715        -5.70267        -0.29974
C          6.23725        -5.00219        -0.56007
C          7.52789        -5.72334        -0.36537
C          8.73471        -4.98050        -0.11237
C         -7.43736        -7.09142         0.57345
C         -6.22520        -7.77829         0.49060
C         -4.96760        -7.06617         0.46911
C         -3.77031        -7.75261         0.44364
C         -2.48778        -7.03112         0.62180
C         -1.20399        -7.79485         0.56590
C          0.06477        -7.07283         0.30779
C          1.27270        -7.80552         0.30506
C          2.48017        -7.10436         0.08125
C          3.75122        -7.80960         0.30137
C          5.00690        -7.14709        -0.03071
C          6.21826        -7.82715        -0.04343
C          7.46266        -7.09867        -0.16423
C         -6.17350        -9.21951         0.47320
C         -4.98677        -9.89279         0.38519
C         -3.72504        -9.19698         0.36989
C         -2.51431        -9.89305         0.28297
C         -1.23523        -9.25535         0.31118
C         -0.03242        -9.93339         0.19709
C          1.25131        -9.27116         0.28752
C          2.42933        -9.99267         0.18445
C          3.73766        -9.35350         0.37420
C          5.02523        -9.99509         0.05896
C          6.18354        -9.28169        -0.01912
O          0.86646        -4.10979        -2.54109
O          5.98475         1.71243         2.01127
O         -2.76990         5.31641        -0.03691
O         -0.30842        -1.77758        -2.75569
H          0.18672        -2.63180        -2.97611
O          3.30973        -4.81651        -3.33272
H          2.32205        -4.66550        -3.11912
O          1.65164         4.92195         1.21824
O         -2.37641        -5.01214         1.85787
H         -1.95829        -5.73541         2.38945
O         -9.07205        -0.61743        -0.99991
O          1.43290         9.29950        -2.10989
H          0.60112         9.06318        -2.57628
O         -3.08784        -3.40352        -1.78781
H         -3.42666        -2.60903        -2.24624
O         -6.11960        -5.43329        -1.53786
H         -6.94473        -5.18187        -2.00468
O         -5.39999         0.88246         1.61745
H         -4.68679         0.21344         1.71457
O         -1.08658         5.44368        -3.36875
H         -1.43287         4.69067        -3.90264
O         -2.10475         3.04143        -3.04574
O          7.68742         3.07175         3.42574
H          7.13602         2.25693         3.49553
O          1.00395         3.26938        -2.74966
O         -2.67992        -2.61086         1.47551
O         -9.27935        -3.33709        -1.12242
H         -9.33160        -2.34576        -1.29159
O          5.05614         7.35908        -1.20754
H          5.86713         6.86638        -1.45513
O          6.12862        -0.90507        -2.22437
O          3.76793        -5.75719        -2.36558
O          5.49984        -4.84411         0.74174
O         -2.58268         7.58597        -3.01244
H         -1.94010         6.97474        -3.45925
O          1.84454         2.36855         0.63077
H          1.73574         3.24328         1.13054
O         -1.46024        -5.27600        -1.67425
H         -0.67098        -4.92008        -2.18357
O         -8.83601         1.41617         2.97197
H         -7.90617         1.72915         2.91692
O          3.07719        -1.22396        -2.83714
O         -5.10633        -5.17748         1.97594
H         -4.18254        -5.01508         2.29693
O          2.58959         7.38070         1.51736
O          7.27972        -3.25262        -1.89647
O          6.06073         3.33390        -1.11763
O          8.49681         0.67104         2.57872
O         -4.92774         3.21868        -2.32484
O          3.32353         1.48622        -2.61920
O         -1.82152        -7.45794         1.87435
O         -6.20682         7.81431        -1.26208
O          3.79682        -8.52265         1.57936
H         11.64995        -1.34465         1.62023
H         11.77061         1.00381         2.01968
H         10.15194         3.33281         1.31519
H          8.80023         5.31068         2.35326
H          7.71135         7.45612         2.04334
H          6.66791         9.65896         1.57262
H          4.71585        10.97412         0.87472
H          2.37502        11.04563        -0.05938
H         -0.14281        11.06273        -0.26748
H         -2.58215        11.02282        -0.26898
H         -4.71303        11.06339         0.21012
H         -6.76281        10.15440         1.03260
H         -7.58813         7.47307         1.77720
H         -9.09658         5.64249         1.44297
H        -10.33698         3.56953         1.75688
H        -11.61821         1.37687         2.04927
H        -11.73552        -1.07039         1.87733
H        -10.53928        -3.25439         1.60149
H         -9.57354        -5.44114         0.90576
H         -8.36895        -7.65863         0.72734
H         -7.12133        -9.77731         0.50165
H         -4.97874       -10.99213         0.34623
H         -2.54480       -10.99004         0.19177
H         -0.04035       -11.02515         0.05444
H          2.39069       -11.07495        -0.01267
H          5.04327       -11.08528        -0.09076
H          7.13125        -9.81378        -0.19134
H          8.39881        -7.65934        -0.01833
H          9.57187        -5.55412         0.31872
H         10.72090        -3.37547         1.02924
