         272
 CSIRO Nanostructure Databank - Neutral Graphene Oxide Data Set
C        -11.29279         0.71725         0.53875
C        -10.19586         1.60034        -0.03966
C         -8.90552         0.80692        -0.31324
C         -7.59082         1.51114        -0.17529
C         -6.31790         0.73217         0.01395
C         -4.99978         1.42846        -0.06109
C         -3.83376         0.72903        -0.71525
C         -2.59314         1.48495        -1.08654
C         -1.28658         0.79096        -1.50553
C         -0.09546         1.29442        -0.69943
C          1.19017         0.54413        -0.81430
C          2.43027         1.29258        -0.34869
C          3.70914         0.57463        -0.06931
C          4.95324         1.32225         0.49598
C          6.28933         0.76024        -0.00586
C          7.52630         1.55659         0.23083
C          8.94041         0.94378         0.10788
C          9.98263         1.53993         1.10974
C         11.28189         0.79330         0.84016
C         -9.94794         2.77747         0.95539
C         -8.74557         3.66905         0.66273
C         -7.54929         2.99407         0.09619
C         -6.23107         3.69111         0.15797
C         -4.94104         2.92235         0.04332
C         -3.71094         3.67283        -0.30850
C         -2.48267         2.93141        -0.73631
C         -1.29424         3.53585        -0.48971
C         -0.01521         2.76465        -0.21928
C          1.22026         3.51009        -0.78054
C          2.49720         2.74955        -0.72230
C          3.90287         3.35954        -0.83313
C          4.82368         2.84188         0.26386
C          5.89692         3.75292         0.73923
C          7.62544         2.80791         1.10420
C          8.79413         3.69608         0.68068
C          9.98562         3.03860         0.78852
C         -8.70079         4.98256         0.98923
C         -7.42655         5.78988         1.24101
C         -6.12716         5.06681         0.76722
C         -4.90439         5.83473         0.37117
C         -3.83738         5.17370        -0.54828
C         -2.46738         5.84224        -0.34955
C         -1.24923         4.97368        -0.10417
C          0.08421         5.66342        -0.09260
C          1.25759         5.04959        -0.86231
C          2.62421         5.63157        -0.36201
C          3.87055         4.93890        -0.93809
C          5.17113         5.70013        -1.21771
C          6.54729         5.02804        -1.12955
C          7.58647         5.72907        -0.29115
C          8.63696         5.10711         0.35634
C         -7.35538         7.20711         0.73090
C         -6.15023         8.02314         1.12497
C         -4.95186         7.33487         0.36183
C         -3.67414         8.10042         0.23558
C         -2.41706         7.30451         0.02423
C         -1.14753         7.66167         0.72601
C          0.08010         7.16064        -0.00627
C          1.36831         7.87538         0.10993
C          2.61799         7.03613         0.23096
C          3.82602         7.86029         0.64056
C          5.23488         7.22058        -1.23342
C          6.37958         7.88874        -0.55787
C          7.48934         7.17295        -0.19164
C         -6.11329         9.48549         0.70682
C         -4.95330        10.15828         0.63176
C         -3.61635         9.48529         0.90173
C         -2.39224        10.35243         0.56261
C         -1.15609         9.97147         0.25256
C          0.11801         9.98346        -0.14532
C          1.32405         9.34876         0.59584
C          2.64200        10.00121         0.22545
C          3.81397         9.31215         0.25437
C          5.10091         9.96278        -0.00185
C          6.26251         9.32301        -0.29851
C        -11.29703        -0.62601         0.57873
C        -10.18751        -1.45565         0.04595
C         -8.95412        -0.70512        -0.35386
C         -7.67323        -1.47982        -0.24700
C         -6.37132        -0.75785        -0.16413
C         -5.11558        -1.46797        -0.59253
C         -3.78153        -0.76574        -0.56387
C         -2.54873        -1.52790        -0.95696
C         -1.32202        -0.79973        -1.49925
C         -0.01701        -1.58020        -1.60114
C          1.30085        -0.81054        -1.47231
C          2.62520        -1.50922        -1.25607
C          3.86522        -0.75276        -0.76017
C          5.20251        -1.42018        -0.70219
C          6.38481        -0.76788         0.00814
C          7.72292        -1.36900        -0.45230
C          8.93679        -0.59397        -0.04775
C         10.00626        -1.33736         0.76392
C         11.29661        -0.54330         0.68250
C        -10.04787        -2.90117         0.37876
C         -8.94312        -3.63118         0.06245
C         -7.74672        -2.97830        -0.65336
C         -6.42683        -3.61380        -0.08988
C         -5.16380        -2.95516        -0.57982
C         -3.89915        -3.75826        -0.58413
C         -2.61975        -3.04699        -1.05461
C         -1.30433        -3.78936        -1.00324
C          0.03737        -3.15675        -1.56344
C          1.35744        -3.77573        -1.03748
C          2.65659        -3.00720        -1.06726
C          3.89143        -3.60942        -0.43569
C          5.20024        -2.90011        -0.47180
C          6.49525        -3.65717        -0.60452
C          7.84438        -2.90780        -0.64913
C          8.94769        -3.56010         0.18792
C         10.03816        -2.84218         0.55040
C         -8.86734        -5.08385         0.20454
C         -7.69360        -5.77338         0.28401
C         -6.41763        -5.01806         0.43824
C         -5.07874        -5.71838         0.77701
C         -3.87976        -5.12852         0.01580
C         -2.52422        -5.69601         0.40249
C         -1.28218        -4.98616        -0.06415
C          0.01975        -5.72054         0.12045
C          1.30735        -4.96247        -0.11015
C          2.59169        -5.57809         0.36837
C          3.87297        -5.10079        -0.26549
C          5.15661        -5.80546        -0.00627
C          6.46205        -5.13609        -0.36709
C          7.73233        -5.89606        -0.04051
C          8.97041        -5.06342         0.23081
C         -7.71396        -7.28357         0.13557
C         -6.34328        -7.96410         0.15978
C         -5.09160        -7.22326         0.48982
C         -3.75556        -7.79788         0.07076
C         -2.55544        -7.20981         0.82983
C         -1.26634        -8.02890         0.53755
C         -0.01650        -7.20998         0.24027
C          1.09631        -8.10319        -0.29902
C          2.67970        -6.93270         1.00844
C          3.62756        -7.87771         0.55067
C          5.29447        -6.88789         1.06978
C          6.38137        -7.88706         0.73156
C          7.57041        -7.33474         0.34917
C         -6.21010        -9.24955        -0.58278
C         -5.02362        -9.78720        -0.91634
C         -3.72241        -9.11733        -0.64737
C         -2.49294        -9.94705        -0.53724
C         -1.33581        -9.36874        -0.15371
C         -0.23310        -9.87535         0.76509
C          1.17468        -9.43800         0.39947
C          2.34130       -10.02701         0.76918
C          3.66832        -9.35553         0.60277
C          4.97399        -9.97569         0.93945
C          6.16622        -9.32009         0.94970
O         -7.01682        -1.31108         1.03900
O         -4.60090         7.95202        -0.89290
O         -3.65020         1.20931        -2.08039
O         -0.74183        -8.83426         1.72017
O          8.59094        -0.79418        -1.45397
O         -1.11457         7.92589         1.93261
O         -5.05017         5.28148         1.71224
O          4.81422        -0.73645        -1.89970
O          5.12513        -6.56489         2.27250
O         -0.82661        -1.24020        -2.77575
O          4.86102         3.65379         1.50578
O         -4.12403        -4.97962        -1.38971
O          2.28490        -3.87710        -2.15839
O          2.54063         5.82466         1.06556
O         -8.18431         1.27653        -1.49846
O         -2.16612        -3.79412        -2.19082
O          4.43990        -3.04956         0.79544
O         -2.82711        -1.18669         0.45195
O          0.27713         0.37149         0.35115
O          1.74871         2.91075        -1.98158
O         -6.53411        -3.83121         1.31633
O          0.64335         7.79763        -1.17131
O          0.15821        -6.37170         1.42215
O         -7.82316        -3.17626        -1.99917
O         -5.32026        -2.21946        -1.82869
O         -7.00062         3.71955        -1.07291
O          6.86298         1.55019        -1.06978
O          4.38272        -6.04292        -1.23113
O          4.70836         7.36722         1.32678
O         -3.96739         3.27506         1.07501
O         -9.86398        -1.17642        -1.37276
O         -0.46977         5.13540         1.13169
O         -3.55041        -7.83350        -1.36567
O          8.33401        -3.06791        -1.99532
O         -2.19894         6.87081        -1.34790
O         -1.85184        -4.74205         1.27140
O         -5.76486        -8.00444         1.52113
O          4.39737         7.84883        -1.86821
O          7.40615         2.67055         2.33355
O          6.41172        -4.61025        -1.71480
O          1.54780        -7.88739        -1.41697
O          4.25178         5.28765        -2.27762
O          2.21931        -0.99832        -2.56127
O          1.92485        -4.59429         1.19349
O          2.70161         0.75862         0.98593
O          6.83422         4.07641        -1.84625
O          3.75794        -8.50439        -0.66426
O         -5.51622         0.95908         1.22081
O          9.47037         1.47068        -1.12651
H          8.94869         1.06474        -1.85907
O          0.08404        -3.55908        -2.93263
H         -0.62723        -3.08927        -3.42265
O          8.77469        -5.70600        -1.05342
H          8.29565        -4.03283        -2.20149
O        -10.66463         2.16446        -1.27180
H         -9.97043         2.02038        -1.95463
O         -4.83048        -5.52804         2.17168
H         -5.23754        -6.27936         2.65651
O         -8.38808        -7.61855        -1.08570
H         -8.10690        -6.99787        -1.78963
O          4.40362         2.81457        -2.05083
H          5.32837         3.13923        -2.21184
O         -9.70053         2.17259         2.23291
H         -9.67120         2.87273         2.91674
O          2.51391        -6.91786         2.34409
H          2.13087        -6.04736         2.60385
O          1.19537         9.41596         2.01086
H          0.36567         8.95178         2.28180
O         -3.51624         9.27697         2.32331
H         -2.65561         8.83249         2.51658
O         -5.86757         7.97476         2.51371
H         -6.31771         7.18650         2.90560
O         -1.03738         1.22285        -2.84227
H         -1.81183         0.98797        -3.39766
O          1.05063         5.40477        -2.22590
H          1.57808         4.79054        -2.78644
O          4.97425         1.09771         1.91270
H          4.05970         1.22330         2.25833
O          9.68185         1.34201         2.50476
H          8.86744         1.84488         2.75948
O         -7.37250         5.80183         2.70106
H         -6.83247         5.04152         3.00584
O          6.34752        -1.17024         1.39580
H          5.74353        -0.56947         1.89887
O         -2.82570        -7.28553         2.22245
H         -2.09824        -6.82652         2.69435
O          0.14772         2.73531         1.20562
H          0.25354         1.79339         1.48531
O          9.52628        -1.29300         2.13956
H          9.67430        -0.38646         2.51501
O         -4.25213         5.35067        -1.90097
H         -4.02244         6.27305        -2.16645
H         12.24857        -1.06797         0.50651
H         12.21952         1.36880         0.79191
H         10.92975         3.53949         0.51869
H          9.40942         5.77557         0.77847
H          8.31951         7.69598         0.30981
H          7.19078         9.91463        -0.34300
H          5.12148        11.05854         0.10699
H          2.64707        11.07498        -0.02075
H          0.31618        10.24212        -1.20310
H         -2.49892        11.39173         0.93258
H         -4.95378        11.22775         0.37111
H         -7.06625        10.00201         0.51751
H         -7.76500         7.38424        -0.27827
H         -9.61392         5.45229         1.39048
H        -10.87754         3.40660         1.00815
H        -12.16705         1.25781         0.93375
H        -12.15736        -1.15098         1.02255
H        -10.90315        -3.39038         0.87236
H         -9.80929        -5.65352         0.15356
H         -8.32422        -7.72983         0.96547
H         -7.14300        -9.76749        -0.84956
H         -4.99063       -10.75843        -1.43362
H         -2.56496       -11.03063        -0.71293
H         -0.31111       -10.90870         1.17341
H          2.32483       -10.99442         1.29845
H          4.97379       -11.06035         1.12866
H          7.07376        -9.92398         1.11574
H          8.44349        -7.98191         0.16572
H          9.78402        -5.51553         0.84057
H         10.89428        -3.36874         1.00576
