         635
 CSIRO Nanostructure Databank - Neutral Graphene Oxide Data Set
C         22.92921        69.93365        -0.95309
C         23.13777        71.33147        -1.48742
C         22.12444        71.96360        -2.20220
C         23.39947        74.02558        -2.28453
C         22.26381        73.30725        -2.60944
C         25.39919        65.69430        -0.06899
C         25.39646        67.10634        -0.14928
C         24.20720        67.84166        -0.48857
C         25.39805        69.97851        -0.30885
C         24.21357        69.21235        -0.60749
C         25.39697        71.37878        -0.48183
C         24.32530        72.04055        -1.16571
C         25.63696        74.14325        -1.24746
C         24.45877        73.41759        -1.55251
C         27.65701        61.30550         0.69546
C         27.74184        62.81342         0.49797
C         26.58943        63.53937         0.36732
C         27.79325        65.70610         0.36744
C         26.57483        64.98757         0.22612
C         27.80649        67.10091         0.26478
C         26.60492        67.82254         0.06129
C         27.77593        69.97936         0.37365
C         26.61164        69.28131         0.06451
C         27.80248        71.44102         0.44399
C         26.53420        72.18570        -0.02779
C         27.91218        74.23394        -0.30074
C         26.70082        73.56471        -0.52651
C         30.18637        57.01256         0.87994
C         30.22526        58.41353         0.48381
C         29.05262        59.14134         0.67399
C         30.23577        61.31453         0.13182
C         28.91872        60.54554         0.30909
C         30.20873        62.78623         0.36537
C         29.03774        63.48292         0.50408
C         30.29372        65.72490         0.57117
C         29.02186        64.96618         0.84566
C         30.32418        67.12146         0.58223
C         29.09614        67.88011         0.14568
C         30.30773        70.01220         0.61919
C         29.01515        69.24343         0.81718
C         30.31262        71.42625         0.47687
C         29.08811        72.15237         0.36012
C         30.34281        74.24673         0.12738
C         29.10439        73.55536         0.11072
C         32.84005        52.79845         0.83707
C         32.76240        54.19041         0.64188
C         31.48287        54.79420         0.90412
C         32.92224        57.12283        -0.05832
C         31.10101        56.06472         0.42588
C         32.78649        58.47248         0.23955
C         31.48396        59.14364         0.22319
C         32.72484        61.26998         0.59392
C         31.47649        60.54084         0.27386
C         32.74837        62.76205         0.66375
C         31.51032        63.50377         0.28803
C         32.81404        65.65377         0.80910
C         31.55115        64.98798         0.45026
C         32.77598        67.12551         1.18295
C         31.51311        67.84957         0.78489
C         32.75897        70.02497         0.72162
C         31.52986        69.29542         0.71445
C         32.78533        71.42641         0.56300
C         31.55634        72.13635         0.43566
C         32.81168        74.25685         0.31329
C         31.56950        73.56727         0.30080
C         35.32313        48.53584         1.07644
C         35.29410        49.95000         0.98475
C         34.07406        50.66632         0.92446
C         35.29150        52.79364         0.66535
C         34.05459        52.06940         0.79195
C         35.26304        54.20356         0.51131
C         34.01430        54.91899         0.39816
C         35.30737        57.05898         0.38148
C         34.07643        56.33160         0.23934
C         35.29042        58.48050         0.37536
C         34.03019        59.20123         0.40072
C         35.24178        61.38384         0.15595
C         34.01388        60.58029         0.48650
C         35.22961        62.81980         0.63963
C         34.04801        63.50398         0.65774
C         35.27893        65.68449         0.91259
C         33.99061        64.95340         0.84768
C         35.27173        67.15940         0.71613
C         33.95138        67.85861         0.50008
C         35.30049        70.00887         0.50987
C         34.05143        69.30630         0.99995
C         35.28413        71.44235         0.48523
C         34.04414        72.14085         0.51224
C         35.29095        74.26695         0.36374
C         34.04530        73.57217         0.40493
C         37.77253        44.25785         0.76966
C         37.75833        45.67155         0.77744
C         36.54702        46.39209         0.92086
C         37.79242        48.50101         0.95240
C         36.54195        47.79851         0.99435
C         37.79070        49.95816         1.33835
C         36.52811        50.68448         0.94761
C         37.78839        52.79547         0.73080
C         36.53032        52.07212         0.77144
C         37.75478        54.18966         0.61349
C         36.51972        54.91532         0.51427
C         37.76715        57.08095         0.47038
C         36.53067        56.33692         0.48803
C         37.76716        58.49925         0.39980
C         36.51358        59.22392         0.42039
C         37.72937        61.37424         0.39169
C         36.51805        60.63402         0.41942
C         37.75746        62.76062         0.47672
C         36.54334        63.49947         0.97387
C         37.71218        65.67710         0.47659
C         36.53627        64.96957         0.64598
C         37.75815        67.10227         0.34419
C         36.47019        67.82374         0.07046
C         37.74007        70.00539         0.24866
C         36.49076        69.31260         0.34153
C         37.74264        71.43185         0.28857
C         36.51762        72.14661         0.36756
C         37.77607        74.27210         0.30405
C         36.51995        73.58845         0.34683
C         40.21391        39.97974         0.56008
C         40.18773        41.39145         0.44718
C         38.99127        42.12299         0.64045
C         40.21049        44.25500         0.40634
C         38.97527        43.53553         0.60741
C         40.21680        45.67834         0.43678
C         38.99566        46.39053         0.63988
C         40.25977        48.54057         0.70284
C         38.99660        47.81519         0.74445
C         40.27668        49.92738         0.88421
C         39.05842        50.68380         0.97533
C         40.32969        52.74073         0.39407
C         39.03685        52.05791         0.79247
C         40.30271        54.23571         0.59998
C         39.01627        54.95577         0.91588
C         40.18942        57.09790         0.23909
C         39.00176        56.39867         0.48934
C         40.18647        58.49200         0.02941
C         38.98881        59.19094         0.22174
C         40.09000        61.36574        -0.50311
C         39.06336        60.67702         0.41421
C         40.13195        62.83527        -0.14806
C         39.00254        63.47656         0.30529
C         40.14186        65.66544        -0.05423
C         39.01563        64.94596         0.69501
C         40.21394        67.14699         0.20915
C         38.97097        67.83447         0.26032
C         40.19690        69.98396         0.03098
C         38.96520        69.27964         0.17455
C         40.17659        71.41421         0.01083
C         38.98712        72.13343         0.18203
C         40.24732        74.28171         0.20771
C         38.99497        73.58863         0.22452
C         42.74253        35.75131         0.86204
C         42.67453        37.11273         0.49709
C         41.45709        37.84210         0.57975
C         42.59691        39.94862        -0.00879
C         41.40675        39.24509         0.36324
C         42.60618        41.35198        -0.08542
C         41.40362        42.09966         0.15934
C         42.61303        44.25070        -0.11912
C         41.41235        43.52737         0.16061
C         42.61579        45.64545        -0.10049
C         41.44334        46.39817         0.23392
C         42.67054        48.56295         0.11463
C         41.47677        47.82452         0.37813
C         42.72754        49.96682         0.24896
C         41.60911        50.59879         1.11913
C         42.61353        52.88763         1.37817
C         41.54624        52.10760         1.02327
C         42.75230        54.31335         0.93216
C         41.45895        54.95263         0.60790
C         42.72460        57.04853        -0.24856
C         41.44710        56.34177         0.09717
C         42.71161        58.50436        -0.33287
C         41.39400        59.17926        -0.59704
C         42.63454        61.34253        -0.31931
C         41.42451        60.66700        -0.37873
C         42.67366        62.80299        -0.30112
C         41.38704        63.55423        -0.56210
C         42.69031        65.69494        -0.23061
C         41.45931        64.91423         0.13896
C         42.66948        67.10129        -0.16251
C         41.42734        67.83050         0.01104
C         42.69489        69.92838        -0.14231
C         41.43522        69.25703        -0.05954
C         42.71842        71.39747        -0.30530
C         41.42370        72.15978        -0.25143
C         42.72289        74.26208         0.02981
C         41.46621        73.61562         0.02448
C         45.24872        32.98257         1.07317
C         44.04202        33.65902         1.15292
C         45.14141        35.70156         0.33673
C         43.95917        35.03639         0.79183
C         45.06937        37.07105        -0.05071
C         43.86915        37.76189         0.03139
C         45.10180        39.92377        -0.23816
C         43.80557        39.18027        -0.47335
C         45.05860        41.34489        -0.21601
C         43.84953        42.04579        -0.29516
C         45.12890        44.23309        -0.38500
C         43.82433        43.51090        -0.65135
C         45.14265        45.63139        -0.39594
C         43.85658        46.35955        -0.47962
C         45.17993        48.51302        -0.18840
C         43.86983        47.86196        -0.40038
C         45.19991        49.92974         0.01636
C         43.94234        50.65131        -0.04773
C         45.19985        52.78427        -0.00358
C         44.05978        52.05918        -0.37557
C         45.23873        54.21346         0.07316
C         44.01370        54.96549         0.40033
C         45.21437        57.06079        -0.15448
C         44.01365        56.37102        -0.06462
C         45.20705        58.50095        -0.38052
C         43.91951        59.20511        -0.40163
C         45.10485        61.39085        -0.62830
C         43.87632        60.62428        -0.40435
C         45.13669        62.78174        -0.03332
C         43.84671        63.51554        -0.25732
C         45.13610        65.67415        -0.39247
C         43.89301        64.97280        -0.29702
C         45.12148        67.07534        -0.40033
C         43.90616        67.79998        -0.24294
C         45.18809        69.92836         0.18304
C         43.89774        69.22671        -0.14681
C         45.17756        71.41918        -0.04755
C         43.98743        72.12365        -0.10644
C         45.20138        74.24533         0.00254
C         43.96152        73.56770        -0.05207
C         46.41723        33.63776         0.64815
C         47.58567        35.69629        -0.08167
C         46.38501        34.99297         0.27754
C         47.57915        37.03705        -0.42566
C         46.26731        37.74357        -0.68558
C         47.56442        39.88050        -0.40504
C         46.31970        39.22261        -0.34969
C         47.64101        41.32544        -0.15226
C         46.32638        42.08236        -0.06599
C         47.59106        44.19717        -0.40108
C         46.34794        43.52781        -0.30391
C         47.60414        45.62068        -0.36355
C         46.37410        46.33672        -0.28737
C         47.60430        48.45803         0.20891
C         46.35407        47.76836        -0.13027
C         47.65234        49.92336         0.17328
C         46.41801        50.61734         0.18671
C         47.65880        52.78375         0.16148
C         46.39216        52.07652         0.57349
C         47.64585        54.08609        -0.24226
C         46.44804        54.91176        -0.04821
C         47.68154        57.13042         0.07739
C         46.48682        56.36130         0.00763
C         47.68079        58.52778        -0.31752
C         46.40648        59.18915        -0.52931
C         47.65250        61.41561        -0.57211
C         46.40630        60.64891        -0.77199
C         47.60957        62.79879        -0.42460
C         46.38093        63.55207        -0.38515
C         47.66765        65.65745        -0.51174
C         46.40289        64.93614        -0.44726
C         47.64773        67.06395        -0.60967
C         46.36001        67.81810        -0.82108
C         47.61960        69.93654        -0.36638
C         46.42564        69.24820        -0.33831
C         47.64276        71.38438        -0.18253
C         46.43376        72.10570        -0.06213
C         47.67351        74.23190        -0.04430
C         46.42932        73.55073        -0.03889
C         48.78125        37.76841        -0.62564
C         49.99401        39.92974        -0.87096
C         48.78031        39.17113        -0.66362
C         50.03178        41.30556        -0.87394
C         48.84920        42.07630        -0.55667
C         50.02118        44.22496        -1.15218
C         48.82307        43.46063        -0.60675
C         50.06379        45.65066        -0.65690
C         48.87695        46.30044        -0.35588
C         50.14019        48.47908        -0.16254
C         48.92477        47.69933         0.08740
C         50.11551        49.88097        -0.06728
C         48.90320        50.57950         0.14047
C         50.18973        52.77734         0.02817
C         48.94173        52.05539         0.45589
C         50.16717        54.08400        -0.35599
C         48.87748        54.60260        -0.91848
C         50.17314        57.07905        -0.10833
C         48.96628        56.57205         0.43809
C         50.16268        58.52034        -0.36956
C         48.89390        59.21566        -0.43082
C         50.11500        61.38018        -0.22240
C         48.94376        60.67403        -0.86262
C         49.93109        62.66070         0.18372
C         48.83913        63.53728        -0.20430
C         50.20932        65.76032        -0.15718
C         48.90830        64.92419        -0.30819
C         50.07201        67.00704        -1.09278
C         48.85220        67.81865        -0.71035
C         50.09851        69.97432        -0.68339
C         48.86275        69.21750        -0.62919
C         50.07682        71.39823        -0.54569
C         48.88124        72.09089        -0.30467
C         50.12754        74.23559        -0.16522
C         48.88694        73.54223        -0.18154
C         51.30587        42.01884        -1.27998
C         52.48742        44.15896        -0.74012
C         51.32526        43.49270        -0.95005
C         52.55067        45.61073        -0.60433
C         51.31604        46.34539        -0.56135
C         52.60419        48.45464        -0.37430
C         51.34730        47.75523        -0.40486
C         52.63868        49.86948        -0.31780
C         51.35773        50.65514        -0.47447
C         52.67237        52.77208        -0.33125
C         51.47799        52.02482         0.21677
C         52.62365        54.14632        -0.54462
C         51.38581        54.88894        -0.40704
C         52.52435        57.03979        -0.96989
C         51.35845        56.29027        -0.33984
C         52.66370        58.46678        -0.41327
C         51.36502        59.22216        -0.39545
C         52.69872        61.40839        -0.43828
C         51.42763        60.66633         0.06019
C         52.75854        62.86484        -0.49070
C         51.79864        63.71273         0.02136
C         52.63790        65.69676        -0.98839
C         51.53671        65.04199        -0.45552
C         52.64555        67.15697        -1.18793
C         51.33355        67.86889        -1.18742
C         52.58601        69.99779        -0.73700
C         51.32725        69.30497        -0.85287
C         52.59840        71.41480        -0.64766
C         51.32129        72.16928        -0.92159
C         52.57401        74.25626        -0.29619
C         51.34716        73.58863        -0.40603
C         53.76198        46.28401        -0.48186
C         55.04420        48.42120        -0.27345
C         53.81924        47.70818        -0.37586
C         55.07645        49.81089        -0.21746
C         53.86291        50.55863        -0.26639
C         55.12026        52.66805        -0.59181
C         53.89704        52.01767        -0.40823
C         55.13946        54.08082        -1.03013
C         53.83965        54.85146        -1.00214
C         55.05571        57.01330        -0.89733
C         53.87141        56.32989        -0.89888
C         55.09213        58.47802        -0.89155
C         53.79010        59.21630        -1.16101
C         55.07791        61.38520        -1.17914
C         53.80819        60.69763        -0.83973
C         55.15595        62.85263        -1.09492
C         53.83676        63.52505        -1.34480
C         55.08954        65.68687        -0.92105
C         53.88950        65.00298        -1.09981
C         55.04624        67.10848        -0.65499
C         53.88018        67.85365        -0.78445
C         55.02828        70.01171        -0.43808
C         53.82576        69.28456        -0.63134
C         55.02940        71.41425        -0.43379
C         53.81027        72.12177        -0.52981
C         55.03198        74.26389        -0.23100
C         53.82449        73.58284        -0.40104
C         56.41331        50.50869        -0.08998
C         57.48584        52.76469        -0.03238
C         56.35998        52.01088        -0.27527
C         57.52516        54.19328        -0.22087
C         56.49332        54.78018        -1.16998
C         57.52475        57.05460        -0.42731
C         56.40873        56.36339        -1.20041
C         57.51459        58.46001        -0.42690
C         56.28426        59.15181        -0.77399
C         57.57248        61.35688        -0.65587
C         56.36259        60.60574        -1.03336
C         57.58925        62.77467        -0.71352
C         56.34974        63.52098        -0.96040
C         57.55256        65.66652        -0.62403
C         56.35908        64.98158        -0.85806
C         57.56789        67.07278        -0.35801
C         56.27901        67.76208        -0.20471
C         57.56749        69.95369        -0.16379
C         56.27313        69.27280        -0.13945
C         57.48806        71.42279         0.13963
C         56.34662        72.14347        -0.59409
C         57.44943        74.26327         0.21999
C         56.30907        73.60378        -0.17451
C         58.58521        54.92591         0.24012
C         59.78240        57.08260         0.49566
C         58.65418        56.36210         0.08555
C         59.84125        58.49570         0.36121
C         58.67687        59.20171        -0.08260
C         59.90233        61.34864         0.11504
C         58.71276        60.64036        -0.20048
C         59.95060        62.77215        -0.01972
C         58.78655        63.47227        -0.43476
C         60.02489        65.65355        -0.10521
C         58.87374        64.94213        -0.76875
C         60.00176        67.05609         0.01736
C         58.75806        67.78459        -0.13619
C         59.99043        69.93460         0.25347
C         58.74407        69.23254         0.00842
C         60.03143        71.38775         0.31041
C         58.80458        72.18252        -0.08134
C         60.04510        74.28298         0.35465
C         58.74106        73.56180         0.60146
C         61.01956        59.21572         0.66449
C         62.26213        61.32940         0.81586
C         61.07673        60.62189         0.53612
C         62.31663        62.74859         0.74461
C         61.15237        63.48469         0.31281
C         62.33811        65.62887         0.72629
C         61.17821        64.92073         0.29168
C         62.40419        67.04092         0.63108
C         61.19759        67.76847         0.33514
C         62.44594        69.92657         0.39796
C         61.16837        69.19303         0.39286
C         62.46113        71.36240         0.86796
C         61.19428        72.09417         0.50958
C         62.48062        74.22724         0.66029
C         61.23172        73.56223         0.47459
C         63.47104        63.42786         1.15811
C         64.77925        65.62842         1.53110
C         63.48252        64.87829         1.26391
C         64.84247        67.06476         1.18174
C         63.65448        67.72414         0.81981
C         64.95058        69.93296         0.88517
C         63.72670        69.16572         0.53813
C         64.95491        71.29420         0.81291
C         63.72811        72.07887         0.38626
C         64.83874        74.14299         1.34168
C         63.70789        73.52693         0.85548
C         66.06834        67.76268         1.29443
C         67.36020        69.86710         1.42977
C         66.15835        69.17058         1.19806
C         67.42266        71.28211         1.38607
C         66.22887        72.08617         0.90751
C         67.34736        74.12323         1.79334
C         66.04583        73.35067         1.76730
C         68.56238        72.00441         1.71736
C         68.52412        73.44137         1.79836
O         54.36476        54.29173        -2.26713
O         29.41544        60.88991        -1.01960
O         50.92030        63.23933         1.01222
O         48.81834        55.25347        -1.94961
O         47.07657        41.71720         1.14878
O         41.89273        56.36264        -1.33466
O         35.45217        66.65299         2.06466
O         63.21567        69.57919        -0.79192
O         45.66291        61.15506        -1.96000
O         26.84675        72.02750         1.39580
O         56.12805        68.44820         1.09862
O         52.06319        67.63283        -2.46297
O         55.79001        60.89513        -2.38163
O         43.63591        55.02318         1.87590
O         32.57798        62.02011         1.92049
O         42.03330        71.81159        -1.55080
O         31.65182        64.31775        -0.91301
O         43.71266        47.18115        -1.70114
O         31.86210        56.48284        -0.69052
O         48.29009        47.90992         1.39334
O         49.02071        52.08899         1.94364
H         49.91541        51.72328         2.17165
O         53.49971        63.32655        -2.75159
H         53.50661        62.36139        -2.92783
O         29.28050        68.14741        -1.27343
H         29.46041        67.29706        -1.72681
O         51.70543        51.76555         1.63967
H         51.99284        52.60708         2.05298
O         39.72370        65.64865        -1.45077
H         40.34342        65.08136        -1.97818
O         51.25785        72.30311        -2.39186
H         51.23652        71.39586        -2.76549
O         26.55215        60.76555        -0.04037
H         26.80362        60.76240        -0.98770
O         62.52351        71.28752         2.32023
H         62.53589        72.20273         2.67343
O         49.79035        66.48245        -2.40996
H         50.59987        66.63037        -2.95823
O         46.29497        52.13091         2.03707
H         47.20062        51.92508         2.37965
O         43.16646        52.67072        -1.18953
H         42.32766        52.16310        -1.29942
O         57.13714        71.45420         1.56161
H         56.75777        70.58373         1.81439
O         57.00045        50.18843         1.18670
H         56.37540        50.46658         1.88707
O         51.41418        41.92620        -2.72439
H         51.23793        40.99747        -2.98386
O         56.58812        72.07711        -2.02699
H         55.93914        72.66711        -2.46435
O         49.82455        44.29654        -2.60569
H         50.25638        43.49824        -2.99445
O         33.62719        67.87135        -0.89990
H         34.46235        67.95060        -1.42155
O         36.25660        67.69286        -1.38625
H         37.09591        67.93133        -1.83647
O         46.22001        67.93443        -2.29257
H         47.11328        68.10727        -2.66147
O         32.85128        67.17144         2.62287
H         33.80308        67.06848         2.87104
O         63.92000        65.33151         2.64217
O         36.68059        63.45596         2.45534
H         35.92831        63.96280         2.83362
O         35.17803        61.53450        -1.32234
H         35.34372        60.65177        -1.71796
O         59.18013        64.99336        -2.21475
H         58.46924        64.50388        -2.68222
O         56.98266        54.34616        -2.47362
H         56.18535        54.22828        -3.04135
O         43.67113        39.07693        -1.95306
H         43.55974        39.99024        -2.29724
O         39.60145        60.86541         1.76246
H         38.91608        60.58391         2.40419
O         37.76371        49.94715         2.82009
H         36.95960        49.45252         3.08834
O         22.12843        69.15396        -1.84781
H         22.62563        69.04054        -2.68335
O         65.78285        72.93986         3.14387
H         66.57214        72.44688         3.45541
O         34.22935        69.27998         2.44735
H         34.24626        70.20849         2.76069
O         63.71533        72.14779        -1.05741
H         64.59773        72.49072        -1.32624
O         46.07238        37.66855        -2.13462
H         45.19243        38.08488        -2.32545
O         28.92940        64.97641         2.32116
H         28.84479        65.91189         2.60857
O         53.58697        59.19069        -2.60634
H         54.40513        59.58316        -2.99905
O         41.14990        58.97272        -2.06080
H         41.29733        58.00388        -2.21649
O         51.59698        60.60134         1.52214
H         51.53136        61.53288         1.84283
O         49.02520        55.59860         1.38455
H         48.12585        55.36742         1.69703
O         53.10812        58.33294         0.96736
H         52.73932        59.09501         1.47722
O         43.56854        52.42959         2.22889
H         44.21222        53.15760         2.40265
O         66.52075        72.54867        -0.45163
H         66.85922        71.77933        -0.95654
O         45.23190        62.53700         1.41584
H         44.92551        63.34689         1.87713
O         45.29082        69.78095         1.65911
H         46.11555        70.23434         1.93810
O         56.64753        56.77590        -2.57518
H         57.21203        56.07126        -2.97800
O         51.19785        50.95113        -1.89054
H         51.24982        50.10919        -2.38903
O         39.69255        61.28507        -1.90186
H         40.04120        60.42921        -2.26083
O         43.67238        43.52939        -2.12090
H         43.61154        44.47033        -2.39684
O         58.98016        72.48102        -1.48360
H         58.93007        71.64536        -1.99259
O         58.72123        73.45563         2.05385
H         58.03245        72.78770         2.29155
O         41.70800        64.62371         1.54190
H         40.86035        64.65659         2.05181
O         28.87111        68.99614         2.24888
H         28.69608        69.85541         2.68801
O         40.43906        52.55272        -1.07585
H         39.68941        53.02371        -1.49918
O         49.12189        60.69753        -2.31092
H         48.30094        60.35336        -2.72314
O         41.32782        63.68103        -2.02398
H         40.85534        62.87744        -2.35619
O         42.00074        50.19331         2.45901
H         42.76979        50.75024         2.71958
O         39.05508        55.01524         2.39866
H         38.16646        55.29784         2.70412
O         50.27657        66.22551         1.20840
H         50.35666        65.43555         1.78545
O         39.18792        65.00122         2.14538
H         38.44921        64.46909         2.53413
O         52.13656        57.05008        -2.35982
H         52.72507        57.67945        -2.84426
H         23.49786        75.07741        -2.58926
H         25.73435        75.17797        -1.60906
H         27.99737        75.28870        -0.60360
H         30.34946        75.33484        -0.03528
H         32.81276        75.35257         0.21392
H         35.28125        75.36635         0.31799
H         37.77802        75.37256         0.32171
H         40.24524        75.37467         0.33903
H         42.74897        75.35623         0.14973
H         45.21171        75.34456         0.05146
H         47.68374        75.33016         0.02133
H         50.12887        75.30782         0.08546
H         52.57545        75.33151        -0.05765
H         55.00072        75.34851        -0.04069
H         57.36501        75.32919         0.49250
H         60.07294        75.38424         0.33621
H         62.47263        75.32183         0.78666
H         64.80272        75.21344         1.60406
H         67.32813        75.21211         1.94922
H         22.32837        70.02870        -0.00252
H         21.20879        71.40597        -2.44429
H         21.45356        73.78669        -3.17638
H         24.45919        65.14485        -0.22706
H         23.27825        67.28906        -0.69376
H         27.44579        61.11187         1.78269
H         25.62716        63.00577         0.34022
H         29.39733        56.71076         1.58559
H         28.17645        58.63839         1.10999
H         31.90898        52.24339         1.02732
H         30.77562        54.21681         1.51965
H         34.37194        47.98427         1.10663
H         33.12328        50.11768         0.99544
H         36.82809        43.70899         0.89961
H         35.59622        45.84205         0.97715
H         39.28969        39.44565         0.82652
H         38.05384        41.57948         0.83032
H         41.83319        35.23858         1.20942
H         40.54239        37.31849         0.89504
H         45.29865        31.92084         1.35336
H         43.13530        33.13880         1.49361
H         47.36826        33.08763         0.60651
H         48.54661        35.16456         0.00411
H         49.74089        37.22910        -0.65390
H         50.91813        39.36818        -1.08325
H         52.19636        41.50264        -0.81876
H         53.43601        43.59983        -0.69263
H         54.70310        45.71365        -0.48251
H         55.98996        47.85965        -0.24808
H         57.11255        50.08637        -0.86147
H         58.38401        52.26789         0.36485
H         59.38785        54.42362         0.80150
H         60.65669        56.54392         0.88987
H         61.91526        58.67010         0.99619
H         63.15593        60.77798         1.14240
H         64.32495        62.86114         1.55588
H         65.73769        65.05917         1.52963
H         66.97535        67.19194         1.54649
H         68.26206        69.30392         1.71605
H         69.49826        71.47948         1.95968
H         69.47466        73.98118         1.92363
