         324
 CSIRO Nanostructure Databank - Neutral Graphene Oxide Data Set
C          1.10785         3.49157         0.32718
C         -0.12170         4.14748         0.07574
C          0.95918         6.37277         0.00832
C         -0.22388         5.51091        -0.07859
C          0.98695         7.75393        -0.61922
C         -0.16949         8.38414        -1.32605
C          1.04636        10.52044        -1.12189
C         -0.10472         9.70010        -1.59201
C          1.05290        12.02303        -1.23201
C          0.07501        12.84612        -2.00423
C          0.99849        14.87134        -0.87939
C          0.09973        14.18696        -1.90578
C          1.07956        16.38923        -0.99810
C         -0.10943        17.14864        -0.98854
C          1.08868        19.37544        -1.24717
C         -0.13319        18.52833        -1.00105
C          1.02476        20.76411        -0.57517
C          0.03075        21.21191         0.32147
C          1.20140        23.35992         0.61218
C          0.07978        22.51687         0.80865
C          1.24708        24.72639         1.08653
C          0.06376        25.41089         1.46611
C          1.31494        27.44545         1.88981
C          0.08337        26.75079         1.80830
C          1.37679        28.84020         2.27018
C          3.55616         3.57255         0.59557
C          2.31612         4.20714         0.45540
C          3.56457         6.38886         0.11170
C          2.26239         5.68828         0.36774
C          3.58630         7.63470        -0.71348
C          2.29466         8.33434        -1.16282
C          3.59677        10.50888        -1.01964
C          2.35209         9.83653        -0.96197
C          3.65851        11.97286        -1.50055
C          2.38549        12.68893        -1.03608
C          3.64198        14.89432        -1.13303
C          2.36820        14.16324        -0.86570
C          3.63021        16.37334        -0.93213
C          2.33364        17.10130        -0.70792
C          3.72259        19.27118        -0.90292
C          2.37064        18.62558        -0.79582
C          3.92330        20.56795        -1.26835
C          2.05986        21.66103        -0.84093
C          3.62141        23.49346        -0.02952
C          2.32920        22.85172        -0.10870
C          3.70888        24.75100         0.63652
C          2.49418        25.41466         1.10436
C          3.77533        27.42964         1.89850
C          2.50723        26.74923         1.59827
C          3.82379        28.88487         2.16246
C          2.55481        29.53143         2.36652
C          6.03291         3.58856         0.73817
C          4.81191         4.26718         0.54683
C          6.05666         6.38801         0.20997
C          4.84373         5.65911         0.23020
C          6.07710         7.78625        -0.10080
C          4.87180         8.40037        -0.68535
C          6.12627        10.51488        -1.32524
C          4.82466         9.84519        -0.95057
C          6.14046        12.01523        -1.04648
C          4.90989        12.72839        -1.06175
C          6.14003        14.85419        -0.87172
C          4.91188        14.12812        -0.98279
C          6.16970        16.27250        -0.69541
C          4.90672        17.01529        -0.50483
C          6.24875        19.17889        -0.56550
C          4.93159        18.52083        -0.46306
C          6.31319        20.58383        -0.59574
C          5.09924        21.37526        -0.91679
C          6.14035        23.32077         0.33412
C          4.91863        22.80812        -0.39840
C          6.20182        24.77302         0.60116
C          4.96665        25.43237         0.78519
C          6.25350        27.57860         1.33749
C          5.03336        26.74081         1.46569
C          6.30275        28.89512         2.01272
C          5.04283        29.53145         2.29894
C          8.49909         3.60064         0.91862
C          7.27396         4.27658         0.69940
C          8.51791         6.40174         0.49100
C          7.28906         5.69537         0.48045
C          8.50264         7.91873         0.52870
C          7.28668         8.53566        -0.14615
C          8.63221        10.49020        -0.83771
C          7.33438         9.80497        -0.71349
C          8.64212        11.99487        -1.05673
C          7.35067        12.71324        -1.00044
C          8.61143        14.84822        -0.88251
C          7.37196        14.13462        -0.91210
C          8.60697        16.23942        -0.74251
C          7.39168        16.96320        -0.59569
C          8.67458        19.09531        -0.30305
C          7.44048        18.41630        -0.45006
C          8.72537        20.50068        -0.18489
C          7.51653        21.22616        -0.28559
C          8.70968        23.25293         0.56737
C          7.44450        22.57790         0.27072
C          8.65157        24.59307         0.99682
C          7.44358        25.35715         0.92811
C          8.75237        27.38126         1.74980
C          7.54439        26.81204         1.13623
C          8.80067        28.81376         2.02291
C          7.53799        29.49887         2.20307
C         10.95594         3.61204         1.17883
C          9.72786         4.28567         0.88094
C         11.00385         6.40385         0.48005
C          9.71788         5.70258         0.64042
C         11.02778         7.87696         0.40427
C          9.82333         8.55290         0.15753
C         11.08281        10.60160        -0.28043
C          9.86042         9.88549        -0.28357
C         11.09710        12.02208        -0.53785
C          9.89094        12.72738        -0.77220
C         11.12094        14.82470        -0.89813
C          9.88403        14.13330        -0.84779
C         11.10614        16.30511        -1.21609
C          9.90841        16.91865        -0.54360
C         11.21951        19.12223        -0.30785
C          9.94845        18.37257        -0.21822
C         11.22754        20.50286        -0.02266
C          9.97084        21.18365         0.08577
C         11.16456        23.17437         0.91005
C          9.94229        22.54648         0.48223
C         10.99676        24.37198         1.63588
C          9.81998        25.15337         1.60190
C         11.62702        27.63498         2.04982
C          9.75049        26.49412         2.11262
C         11.31404        28.99046         1.73528
C         10.00209        29.53417         2.02613
C         13.38317         3.63504         1.62982
C         12.19574         4.26720         1.23265
C         13.49348         6.46502         1.09205
C         12.28385         5.67325         0.77461
C         13.49110         7.88908         0.80498
C         12.27288         8.55877         0.40000
C         13.52429        10.69223         0.17119
C         12.29162         9.95433         0.11054
C         13.55980        12.07895        -0.14215
C         12.32242        12.73847        -0.46758
C         13.60330        14.79423        -1.02104
C         12.31980        14.12552        -0.75260
C         13.61487        16.33298        -1.15989
C         12.38489        17.04608        -0.90491
C         13.68541        19.14523        -0.59366
C         12.43277        18.40956        -0.55646
C         13.70507        20.50642        -0.11960
C         12.47957        21.20618         0.13928
C         13.63825        23.38444         0.46389
C         12.45863        22.58776         0.59166
C         13.72908        24.80490         0.69278
C         12.84759        25.52670         1.52035
C         13.69005        27.71221         0.76237
C         12.71263        26.94971         1.47474
C         13.54498        29.14258         0.66812
C         12.32576        29.74366         1.10178
C         15.79725         3.64418         1.99067
C         14.62293         4.34046         1.71945
C         15.83970         6.56017         1.84968
C         14.61818         5.79612         1.54108
C         15.88249         8.03278         1.49352
C         14.67112         8.64020         0.91618
C         15.95123        10.74885         0.61471
C         14.72133        10.02349         0.55780
C         15.96731        12.13250         0.33158
C         14.78893        12.81064        -0.07913
C         16.03624        14.90796        -0.67344
C         14.84713        14.18104        -0.56320
C         16.11702        16.29310        -1.13022
C         14.88919        17.04839        -1.10563
C         15.98778        19.08332        -1.82043
C         14.85566        18.45211        -1.07836
C         16.23686        20.71108        -0.02434
C         14.94401        21.25661        -0.03334
C         16.09033        23.52273        -0.35765
C         14.81134        22.72971        -0.17919
C         16.06447        24.95997        -0.07034
C         14.87625        25.59256         0.24555
C         15.94745        27.81953        -0.15509
C         14.83729        27.04478         0.29472
C         15.82865        29.25310        -0.24927
C         14.61180        29.88398         0.11711
C         18.37086         3.59061         1.88658
C         17.10336         4.30006         2.11625
C         18.38647         6.43639         1.51205
C         17.12994         5.80680         2.01203
C         18.42648         7.91036         1.23259
C         17.17525         8.71749         1.26030
C         18.48476        10.70126         0.53347
C         17.19458        10.02788         0.85482
C         18.50243        12.15656         0.50708
C         17.23960        12.87658         0.43368
C         18.53640        14.77874        -0.73445
C         17.25899        14.30616        -0.12588
C         18.56078        16.14541        -1.30782
C         17.36103        16.93534        -1.36203
C         18.56934        19.30700        -1.52912
C         17.35641        18.36949        -1.93514
C         18.56154        20.68870        -1.06829
C         17.40253        21.39895        -0.53932
C         18.55082        23.57503        -0.74138
C         17.38272        22.81873        -0.51666
C         18.58463        25.03767        -0.52071
C         17.29816        25.74803        -0.15650
C         18.31760        27.92921        -0.82132
C         17.18773        27.19194        -0.41242
C         18.18733        29.35749        -0.96050
C         16.95987        29.98859        -0.67105
C         19.56824         4.27122         1.81364
C         20.86719         6.37841         1.45861
C         19.64467         5.68505         1.70404
C         20.93359         7.73504         1.28160
C         19.74257         8.63551         1.47839
C         21.02863        10.77806         0.83120
C         19.79320         9.96028         0.70925
C         21.02282        12.11340         0.74148
C         19.77439        12.95507         0.67769
C         21.07430        14.77757        -0.68599
C         19.83390        14.04626        -0.41506
C         21.03213        15.88516        -1.48501
C         19.80036        16.52308        -1.83263
C         21.00184        19.55450        -2.00991
C         19.79030        18.84034        -2.04165
C         20.97195        20.87704        -1.64168
C         19.75199        21.48078        -1.25795
C         20.85809        23.73148        -1.49553
C         19.74593        22.92536        -1.12283
C         20.79485        25.12416        -1.54926
C         19.67665        25.83878        -1.09480
C         20.64727        28.08699        -1.54504
C         19.56717        27.27875        -1.13964
C         20.52080        29.48077        -1.65204
C         19.31922        30.11390        -1.37750
O          4.59695        26.65942         2.86913
O          3.76555        11.84742        -2.88873
O          5.26473        22.54289        -1.79483
O         19.91110        17.60744        -2.68931
O         10.06345        17.32088         0.84921
O         18.34620         6.96260         0.12023
O          0.79557         7.61864         0.80080
O          4.80835        17.72308         0.76661
O          2.53173        13.28150         0.29849
O         19.21356         9.98582        -0.60781
O          8.81662        11.07414        -2.17783
O          6.53573        22.53424         1.49576
O          6.90860        27.57807         0.04005
O         19.08486        13.73970        -1.62827
O         13.59861        15.42284        -2.34296
O          4.47146         7.52618        -1.86259
O          3.64978        15.80589        -2.28504
O         11.82835         5.83042        -0.61449
O         17.24436         5.20715         3.31845
O          2.23780        17.95412         0.48571
O         18.28260        25.39806         0.89190
O         12.06468        24.81933         2.43537
O         15.79351        20.04035        -2.56146
O         17.19555        14.09851         1.32156
O         10.79314        26.95066         2.94317
O         15.68054         7.58079         2.89102
O          2.92881        21.32546        -1.89922
O          2.93047         6.43698         1.43763
O         15.16583        23.24338        -1.50601
O          0.60211        11.40150         0.00507
O         16.45485        19.48757         0.55156
H         17.41468        19.29231         0.55198
O          0.37641        14.66203         0.41102
H          0.86459        13.91661         0.84377
O          8.35273         8.25260         1.95718
H          7.53748         7.81315         2.28129
O         19.73081         9.05047         2.87872
H         19.81233         8.25170         3.44154
O          2.16424         8.11189        -2.59449
H          3.06485         8.21700        -2.98408
O         19.74394        13.66372         1.95227
H         18.81595        13.98300         2.08977
O          6.15974        10.39698        -2.77822
H          5.37458        10.93155        -3.10191
O          1.13973        19.54883        -2.68248
H          1.80628        20.25071        -2.87712
O         17.49162        18.20190        -3.36540
H         17.10680        19.00793        -3.78049
O         10.89582        16.43565        -2.65347
H         11.68480        16.03758        -3.08970
H          1.12528         2.39518         0.40299
H         -1.03044         3.53391        -0.00398
H         -1.20281         5.97765        -0.25401
H         -1.05534         7.78981        -1.59418
H         -0.95092        10.21988        -2.06570
H         -0.63923        12.34647        -2.67701
H         -0.61171        14.79785        -2.48219
H         -1.06726        16.60728        -0.96611
H         -1.10812        19.03779        -1.01099
H         -0.81051        20.55960         0.59286
H         -0.75516        22.87480         1.42609
H         -0.89899        24.88292         1.43443
H         -0.85283        27.27558         2.04586
H          0.42631        29.35936         2.46264
H          3.57644         2.47729         0.70238
H          2.54488        30.60016         2.62658
H          6.02542         2.50823         0.94452
H          5.05505        30.58539         2.61732
H          8.48730         2.51976         1.12203
H          7.57100        30.53427         2.57643
H         10.91005         2.54456         1.44253
H          9.92302        30.63293         2.06029
H         13.36638         2.56612         1.88941
H         12.16438        30.81555         0.91351
H         15.76128         2.54579         2.04518
H         14.52473        30.97689         0.02673
H         18.35864         2.49219         1.84313
H         16.88968        31.08364        -0.75274
H         20.50655         3.69868         1.75737
H         21.79372         5.78653         1.40258
H         21.91280         8.20087         1.10159
H         21.98311        10.25059         0.98042
H         21.97076        12.66013         0.85751
H         22.03008        14.41062        -0.28812
H         21.96343        16.37825        -1.79710
H         21.92272        19.07538        -2.36491
H         21.89860        21.46034        -1.68159
H         21.79003        23.26574        -1.83790
H         21.66562        25.66250        -1.94861
H         21.61730        27.62934        -1.78174
H         21.39059        30.07367        -1.96794
H         19.22892        31.20481        -1.47834
