         320
 CSIRO Nanostructure Databank - Neutral Graphene Oxide Data Set
C         30.31615        31.64642        -0.75917
C         30.43133        32.84183        -1.02414
C         30.40093        36.12095        -1.22384
C         30.39035        37.34474        -1.04334
C         30.31937        40.52186        -0.00299
C         30.25272        41.70288         0.35821
C         32.75512        28.95825        -0.61135
C         31.59018        29.41903        -0.63918
C         32.75714        31.63045        -0.36728
C         31.39439        30.83998        -0.10904
C         32.76355        32.97596        -0.62033
C         31.56533        33.75196        -1.30380
C         32.76846        36.00833        -0.97018
C         31.43354        35.14338        -0.68134
C         32.72638        37.40855        -0.28615
C         31.49377        38.25420        -0.72095
C         32.66147        40.16668         0.62693
C         31.46378        39.64989        -0.22640
C         32.67326        41.71943         0.82764
C         31.47532        42.58166         0.18557
C         32.66825        44.43681         1.07725
C         31.57824        43.92091         0.83012
C         35.41539        27.30048        -0.61247
C         35.28536        28.74653        -0.88997
C         34.05432        29.48641        -0.62401
C         35.26664        31.59798        -0.35051
C         34.05517        30.90850        -0.38999
C         35.26196        33.02344         0.16926
C         33.97318        33.77508        -0.24113
C         35.25661        36.02282        -0.34628
C         33.97484        35.26363        -0.42001
C         35.25574        37.37518        -0.23093
C         34.02970        38.22658        -0.55234
C         35.17555        40.27451         0.36182
C         34.01007        39.60934         0.14947
C         35.30201        41.59900         1.16334
C         33.95555        42.40078         1.24345
C         35.14477        44.59653         0.67687
C         34.02490        43.99072         1.49587
C         35.36319        46.07757         0.84464
C         37.90005        27.19777        -0.47283
C         36.54835        26.79133        -0.58353
C         37.98246        28.73830        -0.83741
C         36.61704        29.47723        -0.89276
C         37.70237        31.59483         0.20426
C         36.61672        31.00860        -0.73899
C         37.72998        33.09708        -0.06627
C         36.56013        33.77928        -0.13252
C         37.77141        36.00503        -0.17241
C         36.53635        35.23613        -0.58551
C         37.76392        37.34672         0.07630
C         36.46570        38.10817         0.29661
C         37.70281        40.33276         0.39236
C         36.47395        39.60786        -0.14846
C         37.72889        41.83933         0.15695
C         36.45856        42.46546         0.64276
C         37.73609        44.72368         0.60628
C         36.53681        43.88812         1.12769
C         37.73226        46.08845         1.36352
C         36.43508        46.63516         1.13232
C         40.20564        24.36701         0.14750
C         39.17631        25.05481        -0.01089
C         40.33664        27.17399        -0.00424
C         39.00204        26.48294        -0.12198
C         40.32823        28.67077         0.06501
C         38.97374        29.37481         0.16359
C         40.21991        31.57697         0.34590
C         39.06434        30.89892         0.09719
C         40.10936        33.05768         0.69323
C         39.09346        33.70954        -0.34670
C         40.30166        35.97031         0.02762
C         39.05344        35.24898        -0.33159
C         40.30425        37.42409         0.32571
C         39.03863        38.17634        -0.07103
C         40.29055        40.31477         0.78176
C         38.96332        39.56771         0.58769
C         40.21659        41.75645         0.34105
C         39.02488        42.50136         0.83998
C         40.23314        44.64346         0.24683
C         39.07922        43.99700         0.58118
C         40.31087        46.11861         0.01534
C         38.72900        46.56255         2.18468
C         40.29939        48.45212         1.68739
C         39.26618        47.89377         2.09680
C         42.86270        24.37666         0.32356
C         41.57071        24.74413        -0.25741
C         42.85099        27.12426         0.37635
C         41.50392        26.42559         0.61070
C         42.80148        28.59243         0.93733
C         41.48630        29.37060         0.70549
C         42.82085        31.55814         0.75386
C         41.49253        30.86769         0.71796
C         42.87203        33.07328         0.92580
C         41.47913        33.77586         0.83154
C         42.76729        35.97169         0.19521
C         41.50525        35.23010         0.50468
C         42.80831        37.39176         0.73540
C         41.47762        38.08329         0.51107
C         42.72676        40.23214        -0.15921
C         41.45791        39.54267         0.20432
C         42.73461        41.75089        -0.35982
C         41.53818        42.49406         0.31409
C         42.82240        44.61595        -0.02708
C         41.47150        43.91779        -0.26208
C         42.86770        46.04909         0.47413
C         41.54770        46.79874         0.48191
C         42.81592        48.72360         0.94287
C         41.50157        48.10586         0.97894
C         43.95423        24.95906         0.48682
C         45.37761        27.12080         0.60566
C         44.09150        26.38036         1.02494
C         45.32739        28.69748         0.97710
C         44.05295        29.36595         0.39554
C         45.29270        31.56524         0.45372
C         44.00913        30.87191         0.65622
C         45.23174        32.95593        -0.04671
C         43.86543        33.64871        -0.13961
C         45.29451        35.89681         0.04742
C         44.00632        35.19084        -0.07870
C         45.35227        37.39663         0.32872
C         44.02826        38.14623         0.22325
C         45.33161        40.23211        -0.08908
C         44.00808        39.48332        -0.01750
C         45.21486        41.67930        -0.49045
C         44.03895        42.41268         0.09226
C         45.34723        44.60606         0.04693
C         43.99260        43.92502        -0.10982
C         45.33724        46.13499        -0.22543
C         44.06866        46.88940        -0.06491
C         43.84876        48.26378         0.41937
C         47.63791        27.44936         1.45608
C         46.64898        26.71602         1.36055
C         47.85809        28.92182         1.43039
C         46.62358        29.41592         0.52483
C         47.78970        31.68607         0.45341
C         46.53162        30.93871         0.53852
C         47.78711        33.05144         0.25208
C         46.53018        33.73151        -0.12305
C         47.69389        35.93107        -0.41820
C         46.49960        35.22194        -0.11350
C         47.59902        37.31773        -0.77484
C         46.46016        38.03345        -0.48712
C         47.63482        40.16566        -1.10160
C         46.30875        39.45161        -0.97062
C         47.72221        41.64436        -0.83953
C         46.40069        42.39495        -0.93943
C         47.89536        44.56315        -0.76977
C         46.47799        43.90446        -0.75130
C         47.74639        45.86591        -0.07980
C         46.73145        46.57618        -0.07701
C         50.45384        29.09910         1.50290
C         49.15311        29.48113         0.90903
C         50.33393        31.83307         0.94708
C         49.11320        30.96134         0.58286
C         50.30772        33.08964         0.05261
C         49.03533        33.93876         0.34259
C         50.28020        35.95997        -0.76473
C         48.93543        35.11123        -0.67442
C         49.98727        37.47519        -0.48251
C         48.82020        37.96005        -1.43598
C         49.78537        40.23654        -2.16702
C         48.75176        39.47594        -1.46792
C         49.98472        41.64517        -2.03848
C         48.95802        42.30349        -1.42386
C         50.47061        44.03748        -0.59969
C         49.12023        43.75162        -1.06929
C         51.51079        29.71623         1.22754
C         52.82049        31.85502         0.60181
C         51.74464        31.08046         0.92782
C         52.62954        33.13463         0.35988
C         51.61564        33.97346         0.15142
C         52.66293        36.27884        -0.42899
C         51.48584        35.46802         0.14326
C         52.39286        37.49894        -0.52262
C         51.27740        38.37229        -0.46524
C         52.19974        40.68125         0.10258
C         51.21605        39.62987         0.10834
C         52.70829        41.78977         0.15635
C         52.92368        43.25423         0.07655
C         51.61699        43.86141        -0.23002
O         32.97331        41.95395         2.23174
O         39.94595        35.76245        -1.38141
O         41.80936        39.69379        -1.19736
O         35.92801        29.13963        -2.15369
O         53.97553        43.82954         0.23273
O         39.44132        46.75163        -0.58348
O         41.12354        30.07509         1.94448
O         49.29148        29.94104        -0.46331
O         38.07361        39.82502         1.71853
O         48.74092        34.40857        -1.97714
O         48.50134        44.63719        -2.06170
O         31.77121        39.36190        -1.62340
O         40.66944        27.99577        -1.17645
O         44.58241        46.60286        -1.36432
O         39.11264        38.43963        -1.44962
O         45.93367        33.12593        -1.33790
O         46.14305        43.36559        -2.03224
O         33.64598        34.68775         0.88618
O         43.20675        35.83300        -1.16779
O         41.38319        34.79286         1.90115
O         50.23778        32.64131        -1.29782
H         50.91648        31.94736        -1.43949
O         39.46782        33.10970         1.99207
H         39.89620        33.83402         2.50712
O         36.59915        35.15874        -2.04627
H         36.99115        35.99353        -2.38342
O         31.82306        33.77502        -2.69364
H         32.34467        34.58431        -2.92086
O         45.59279        26.94186        -0.76428
H         45.31280        26.03254        -1.00552
O         41.63408        24.88831        -1.62415
H         42.50811        25.26594        -1.86737
O         45.32173        28.83192         2.40211
H         44.52609        28.36043         2.76367
O         37.94631        42.07712        -1.25212
H         37.43456        41.39327        -1.75214
O         50.04446        40.02883         0.65844
H         50.00213        41.00175         0.78165
O         38.82703        42.31575         2.27260
H         39.39078        42.97724         2.73014
O         36.21998        38.14672         1.73761
H         36.14909        37.22383         2.06070
O         43.28011        33.29122        -1.39518
H         43.95026        33.44477        -2.09662
O         47.70718        35.07467        -2.74885
H         46.95669        34.42770        -2.69316
O         32.62753        37.11839         1.11123
H         32.61126        37.95725         1.64431
O         35.60930        41.22112         2.53489
H         36.38501        40.61123         2.51880
O         39.51891        33.26949        -1.64211
H         39.80002        34.06130        -2.15787
O         36.52237        39.73400        -1.57312
H         35.75358        39.24586        -1.97038
O         38.46637        29.04691         1.47500
H         39.04012        29.48966         2.14005
O         44.07254        29.30246        -1.03829
H         44.96696        29.00138        -1.33385
O         48.02960        41.74610         0.60883
H         47.42746        41.09892         1.07455
O         43.09681        27.07368        -1.03041
H         42.38827        27.59722        -1.48507
O         45.72614        39.43048        -2.29845
H         46.30529        38.89988        -2.88663
O         46.83847        29.08058        -0.84723
H         47.70737        29.45548        -1.13760
O         34.16651        38.47184        -1.97631
H         33.41273        39.04996        -2.25660
O         32.92262        36.16415        -2.38252
H         32.24461        36.79431        -2.71011
O         47.77802        29.48735         2.73343
H         46.91040        29.20720         3.11848
O         45.75093        37.47048         1.73999
H         44.94884        37.24396         2.26960
O         41.79012        42.69491         1.73246
H         41.64384        41.82539         2.18611
O         41.26138        43.93362        -1.68613
H         40.47847        43.38013        -1.89367
O         49.41231        37.57186         0.82146
H         49.99069        37.09151         1.46096
O         42.72303        41.96211        -1.77521
H         42.17555        41.25362        -2.18589
O         50.77107        35.82306        -2.10898
H         50.47249        34.94648        -2.45208
O         43.00610        37.26489         2.18475
H         42.68023        38.08642         2.61121
O         44.20752        42.22620         1.54197
H         44.83992        42.93545         1.83560
O         37.45236        45.01076        -0.77765
H         38.08042        45.72839        -1.06211
O         36.90355        31.54694        -2.04925
H         36.41626        31.00225        -2.70801
O         50.15113        32.21458         2.32304
H         50.11740        31.39789         2.86824
O         34.89453        44.26662        -0.67072
H         35.67266        44.58176        -1.19413
O         45.91211        40.21004         1.25789
H         45.30897        40.75852         1.82124
O         32.40768        39.60492         1.93449
H         32.79414        40.23771         2.59524
O         48.92334        37.54181        -2.79468
H         49.56596        36.79110        -2.86554
O         41.24035        26.20452         1.95884
H         42.08803        26.02858         2.43130
O         37.26825        31.35588         1.55178
H         37.83106        31.90655         2.14236
O         49.07352        34.53137         1.63915
H         49.31926        33.83688         2.29565
O         39.62069        45.67245         2.73888
H         40.39173        46.14806         3.10767
O         51.30986        35.85862         1.50855
H         52.13168        35.64594         1.99796
O         36.66805        43.88270         2.55424
H         36.19789        43.09808         2.92317
O         34.20496        44.19056         2.87521
H         33.47509        43.72831         3.34077
O         31.22932        30.78565         1.27491
H         30.32048        30.49131         1.48763
O         45.69625        44.47231         1.45815
H         45.02666        45.00075         1.96194
O         43.23509        45.88372         1.89990
H         43.26602        46.78411         2.29685
O         35.19663        32.86314         1.61160
H         34.57741        33.54740         1.95870
O         40.57716        40.29203         2.22788
H         39.73826        40.61393         2.65196
O         43.43893        33.34065         2.21921
H         42.89580        34.04692         2.64522
O         38.53186        28.84527        -2.14288
H         37.81042        28.67870        -2.78904
O         31.75731        42.69232        -1.17961
H         31.15330        43.34217        -1.59294
O         44.00270        26.30173         2.44137
H         44.82511        25.86931         2.76111
O         42.85961        28.43558         2.36355
H         42.36277        29.18947         2.76950
O         31.17326        34.94485         0.67325
H         31.41841        35.75837         1.17784
O         50.55375        39.56324        -2.99471
H         51.12550        40.18483        -3.49206
