         344
 CSIRO Nanostructure Databank - Neutral Graphene Oxide Data Set
C          1.42658         1.82693         0.52149
C          1.32736         3.26650         0.55338
C          2.58808         1.20660         0.21753
C          2.43951         4.06633         0.43255
C          1.13450         6.17009         0.58797
C          1.06823         7.50608         0.94884
C          2.38872         5.52453         0.57565
C          2.25537         8.22399         1.12710
C          1.09733        11.10556         0.28715
C          1.20706        12.20788        -0.54737
C          2.25692        10.44074         0.70997
C          2.48284        12.73906        -0.83856
C          1.49756        14.70756        -2.04098
C          1.58631        16.01701        -2.48017
C          2.60989        14.04507        -1.46378
C          2.80431        16.73198        -2.37357
C          2.87311        18.14639        -2.69125
C          3.78358         2.00969        -0.23279
C          3.74469         3.43563         0.28253
C          5.08186         1.30472         0.03042
C          4.87945         4.12812         0.57940
C          3.57545         6.28185         0.71547
C          3.53834         7.69984         0.84446
C          4.85511         5.56666         1.07125
C          4.75847         8.52598         0.73033
C          3.55103        10.76725         0.26433
C          3.64639        12.04005        -0.39173
C          4.74458         9.94417         0.52123
C          4.90822        12.71875        -0.39970
C          3.86295        14.72230        -1.42625
C          3.94746        16.06202        -1.90060
C          4.99938        14.06624        -0.82928
C          5.21533        16.81603        -1.82363
C          3.97860        18.89694        -2.42221
C          5.18291        18.29940        -1.89193
C          6.21635         1.96171         0.40178
C          6.16178         3.40800         0.71990
C          7.50455         1.31857         0.34198
C          7.42202         4.21953         0.72659
C          6.09580         6.34894         0.66701
C          6.02505         7.82167         0.63007
C          7.28098         5.68320         0.46275
C          7.23790         8.53457         0.58512
C          5.99335        10.66771         0.47654
C          6.02488        12.05231         0.18967
C          7.24997         9.97340         0.67659
C          7.22024        12.84398         0.48979
C          6.24327        14.76952        -0.67702
C          6.38688        16.15841        -1.18477
C          7.33163        14.19691        -0.05825
C          7.37374        17.03710        -0.43866
C          6.28994        19.03699        -1.54863
C          7.49843        18.43098        -1.01645
C          8.68617         2.02743         0.24080
C          8.78143         3.51842         0.59472
C          9.88283         1.35396        -0.16468
C          9.69596         4.22972        -0.36983
C          8.46958         6.43497        -0.02253
C          8.51503         7.86151         0.38341
C          9.71005         5.72428        -0.46134
C          9.71922         8.50099         0.48766
C          8.47152        10.64865         0.78050
C          8.51929        12.09911         0.85124
C          9.73568         9.88356         1.08800
C          9.81011        12.82066         0.72031
C          8.68400        14.82792        -0.28280
C          8.69202        16.33649        -0.24069
C          9.84795        14.18592         0.42403
C          9.86782        17.01661        -0.14828
C          8.67250        19.11181        -0.91896
C          9.99465        18.45094        -0.61865
C         10.92603         2.08789        -0.75330
C         10.59640         3.47595        -1.04275
C         12.22573         1.58400        -1.01315
C         12.41144         4.61609        -1.33041
C         11.02547         6.45923        -0.36240
C         11.01006         7.70577         0.51586
C         12.23256         5.94186        -0.75845
C         12.26238         8.55782         0.41367
C         11.02126        10.65782         0.90009
C         11.02205        12.10066         0.92933
C         12.22914         9.95492         0.77341
C         12.23133        12.83433         1.02004
C         11.06608        14.91958         0.49598
C         11.09508        16.33395         0.23755
C         12.26665        14.23872         0.85152
C         12.27898        17.07307         0.41363
C         10.94731        19.25013         0.28777
C         12.27944        18.52296         0.36560
C         13.43723         2.33821        -1.12218
C         13.49087         3.80274        -1.04162
C         14.65775         1.64231        -1.04839
C         14.72601         4.45012        -0.61709
C         13.53246         6.69418        -0.66350
C         13.47469         7.95886         0.13343
C         14.73570         5.83229        -0.35540
C         14.73041         8.60104         0.41215
C         13.48581        10.64782         0.90423
C         13.47731        12.08861         1.24436
C         14.68920         9.97044         0.81886
C         14.76734        12.85432         1.19529
C         13.51464        14.97722         0.85774
C         13.51930        16.38632         0.64962
C         14.75010        14.30970         0.97600
C         14.75585        17.09147         0.64104
C         13.45854        19.21467         0.41539
C         14.74268        18.54337         0.44284
C         15.91648         2.28939        -0.84401
C         15.93582         3.71084        -0.59191
C         17.12601         1.58354        -0.83471
C         17.17677         4.39042        -0.40035
C         15.95715         6.49701        -0.06679
C         15.95002         7.90001         0.31011
C         17.17126         5.78613        -0.14316
C         17.20154         8.49794         0.73738
C         15.95529        10.68274         1.12432
C         15.97429        12.12094         0.66461
C         17.22696         9.91588         1.17988
C         17.25690        12.86873         0.90030
C         15.98760        14.99654         0.91493
C         15.97912        16.40535         0.78978
C         17.24079        14.24262         0.95926
C         17.25769        17.21894         0.92268
C         15.91601        19.21787         0.22065
C         17.18558        18.43761        -0.00419
C         18.39048         2.24453        -0.68098
C         18.41064         3.67375        -0.47617
C         19.59306         1.53561        -0.74608
C         19.65678         4.35678        -0.22240
C         18.45996         6.55758        -0.17747
C         18.39349         7.83113         0.61762
C         19.67922         5.72797         0.08977
C         19.64520         8.42963         1.21140
C         18.51323        10.64945         1.04822
C         18.50121        12.09926         0.93103
C         19.69387         9.93343         1.02239
C         19.69422        12.77686         0.83177
C         18.56095        14.99214         1.11430
C         18.52510        16.43162         0.65065
C         19.65763        14.20994         0.36947
C         19.65499        17.07657         0.25627
C         18.46330        19.22644         0.04286
C         19.66846        18.54382         0.07731
C         20.89247         2.26967        -0.89745
C         20.88509         3.62198        -0.22954
C         22.12789         1.46252        -0.62148
C         22.08150         4.24575         0.13751
C         20.90400         6.39453         0.41138
C         20.91790         7.74682         0.78451
C         22.12929         5.63275         0.40859
C         22.20628         8.42856         1.16513
C         20.97248        10.59550         0.95694
C         20.95871        12.06606         1.03588
C         22.18292         9.92113         0.88776
C         22.24869        12.81729         0.85268
C         20.98647        14.91879         0.36734
C         20.92674        16.34443        -0.14031
C         22.17952        14.25689         0.49416
C         22.16854        17.12456         0.17657
C         20.92200        19.21518         0.00974
C         22.16164        18.52370         0.11858
C         23.29808         2.04089        -0.19647
C         23.30714         3.42003         0.42642
C         24.53998         1.33836        -0.22838
C         24.60629         4.16511         0.22388
C         23.39880         6.31691         0.50968
C         23.42905         7.72409         0.64199
C         24.61757         5.59650         0.32859
C         24.61722         8.45477         0.38045
C         23.42134        10.62354         0.61396
C         23.44707        12.04533         0.50705
C         24.59723         9.88172         0.32911
C         24.64821        12.76581         0.21007
C         23.44593        14.93336         0.33811
C         23.45895        16.43059         0.51884
C         24.62892        14.22612         0.20587
C         24.60832        17.08546        -0.23539
C         23.42642        19.23550         0.17383
C         24.64024        18.57326         0.04843
C         25.77171         2.00471        -0.06182
C         25.78334         3.44656         0.13123
C         26.99825         1.31845        -0.21252
C         27.09670         4.13292         0.41439
C         25.85336         6.31705         0.20438
C         25.83792         7.73759         0.13882
C         27.08595         5.61043         0.13394
C         27.07843         8.46135        -0.00011
C         25.79279        10.58806        -0.25826
C         25.84933        12.06994         0.02473
C         27.07618         9.85096        -0.00377
C         27.10106        12.76763        -0.11893
C         25.89062        14.94328         0.05697
C         25.90671        16.35605         0.01378
C         27.10839        14.22772        -0.06743
C         27.12092        17.06558         0.03248
C         25.89350        19.23330         0.04410
C         27.11594        18.53353        -0.00359
C         28.23796         2.01187        -0.31510
C         28.28953         3.41897        -0.15362
C         29.44264         1.31108        -0.63866
C         29.49668         4.12596        -0.35458
C         28.30630         6.29473        -0.06806
C         28.32436         7.72278        -0.13752
C         29.53020         5.56360        -0.27833
C         29.53277         8.40367        -0.40609
C         28.38530        10.59184         0.10392
C         28.28952        12.05591        -0.25833
C         29.47413         9.89068        -0.71615
C         29.54921        12.74251        -0.56214
C         28.32914        14.94826        -0.06209
C         28.33975        16.35026         0.06071
C         29.59259        14.24408        -0.38533
C         29.64150        17.08233         0.30177
C         28.34429        19.21973        -0.09428
C         29.59135        18.55623        -0.06104
C         30.63060         1.98639        -0.79601
C         30.68577         3.40439        -0.67256
C         31.90187         4.12269        -0.84608
C         30.74541         6.25429        -0.50346
C         30.74586         7.69821        -0.54637
C         31.93204         5.49487        -0.75600
C         31.96695         8.44343        -0.71372
C         30.80870        10.60799        -0.61531
C         30.83024        11.99145        -0.58239
C         31.99935         9.81276        -0.70220
C         32.03339        12.78867        -0.76251
C         30.91669        14.88531         0.02495
C         30.86330        16.38747        -0.34837
C         32.06974        14.12965        -0.59053
C         32.11401        17.17540        -0.02886
C         30.80343        19.23329        -0.14309
C         32.05062        18.53429        -0.00844
O         14.23164        12.42326         2.47846
O          2.11272         9.48573         1.71628
O          6.35913        16.26277        -2.63531
O         29.50805        13.67600        -1.71840
O          6.81397         3.78854         2.00604
O         16.51627        10.31732         2.41923
O          8.76579         6.25076        -1.47154
O          7.66906        12.70481         1.89031
O         11.34967         4.08280        -2.06133
O         21.72559        12.57087         2.21598
O         19.55045         8.22552         2.67605
H         18.75308         8.70658         2.99044
O         11.11000        20.56517        -0.23453
H         11.32608        20.46220        -1.18612
O         30.68948        16.42334        -1.78291
H         30.69905        17.36279        -2.06286
O         19.20036        14.17063        -1.03019
H         19.78954        13.55754        -1.51931
O         18.61378         7.00470        -1.59183
H         17.77307         7.44299        -1.84735
O          4.83177         5.52082         2.53325
H          5.58432         4.93670         2.79928
O         20.97862         2.58538        -2.35586
H         20.18253         3.11338        -2.58300
O          9.68497         9.64131         2.56061
H          9.49526        10.50197         2.99495
O         17.08636        17.88038        -1.36203
H         17.10548        18.62946        -1.99379
O         29.03729         9.99672        -2.10575
H         29.74694         9.63018        -2.67395
O         27.24891         4.01911         1.89400
H         27.44737         3.07731         2.08600
O          6.77682        17.18845         0.88924
H          7.38146        17.73397         1.43458
O         24.32618        16.92650        -1.65189
H         25.05352        17.34786        -2.15509
O          3.67373         2.10039        -1.70061
H          2.78938         2.47582        -1.89823
O         22.31287         8.31031         2.63367
H         21.39337         8.36186         2.99580
O         29.84314        17.06432         1.75606
H         29.08643        17.53560         2.16497
O          9.40729         3.58411         1.90294
H          8.70054         3.39422         2.56107
O         23.23843         3.18426         1.87873
H         24.10001         2.80665         2.15669
O         18.86422        15.04357         2.53292
H         18.95633        14.12146         2.85771
O         28.81416        10.53217         1.49645
H         28.10658        10.91806         2.05402
O         23.70417        16.66600         1.94133
H         23.01039        16.19560         2.45023
O         31.06896        14.72516         1.45337
H         30.64753        15.49893         1.90233
O         15.81069        12.03589        -0.78807
H         15.97479        12.92618        -1.16579
O         17.32762        17.67580         2.29562
H         17.66624        16.92766         2.83594
O          8.96331        14.52224        -1.71178
H          8.25419        14.93987        -2.25108
O         25.61885        10.49964        -1.74227
H         26.48849        10.71980        -2.14529
O         11.05545         7.18154         1.89121
H         10.74120         7.90326         2.48639
O         20.86441        16.26607        -1.60679
H         20.03541        15.77265        -1.81449
O         10.69043        18.39736        -1.90597
H         10.16062        17.83649        -2.51124
O         13.79099         7.16554        -2.04518
H         13.74887         6.38142        -2.63430
H          0.53010         1.24070         0.77136
H          0.33996         3.70084         0.75815
H          2.65069         0.10917         0.18196
H          0.20813         5.60579         0.42127
H          0.10530         8.00177         1.12613
H          0.11851        10.76672         0.64984
H          0.29621        12.72672        -0.87217
H          0.53481        14.18684        -2.13151
H          0.70031        16.51983        -2.89352
H          1.96910        18.62637        -3.09421
H          5.13908         0.23926        -0.24119
H          3.96909        19.98188        -2.60369
H          7.51775         0.23971         0.11886
H          6.28922        20.12520        -1.71794
H          9.94914         0.25911        -0.07106
H          8.72611        20.14793        -1.29066
H         12.35980         0.49762        -0.87686
H         10.50953        19.34126         1.31753
H         14.64389         0.54278        -1.10378
H         13.43874        20.31406         0.36472
H         17.11954         0.49657        -1.00518
H         15.90203        20.30307         0.03055
H         19.57379         0.44859        -0.91716
H         18.44659        20.31978        -0.08757
H         22.14337         0.42318        -0.98797
H         20.92806        20.31255        -0.07122
H         24.54472         0.27900        -0.52885
H         23.40906        20.33201         0.27053
H         26.98399         0.23052        -0.37289
H         25.91754        20.33237         0.10793
H         29.40482         0.21864        -0.75877
H         28.33160        20.31485        -0.20707
H         31.55314         1.43706        -1.03432
H         32.82419         3.56542        -1.06589
H         32.88857         6.01072        -0.91202
H         32.91980         7.90341        -0.78863
H         32.97484        10.31730        -0.75058
H         32.94479        12.27705        -1.10753
H         33.00638        14.67277        -0.78683
H         33.08222        16.65992         0.04578
H         30.81120        20.32598        -0.26747
H         32.96989        19.12756         0.10775
