         320
 CSIRO Nanostructure Databank - Neutral Graphene Oxide Data Set
C         30.41784        31.44740         0.17882
C         30.51664        32.65829         0.37785
C         30.44654        35.86618         0.65483
C         30.37978        37.09831         0.66551
C         30.06419        41.91552        -1.93455
C         30.78647        42.25167        -0.95775
C         32.73684        28.71084        -0.01334
C         31.61948        29.21087        -0.16319
C         32.75195        31.37408        -0.52414
C         31.31980        30.57832        -0.66168
C         32.64811        32.87775        -0.77238
C         31.69328        33.55965         0.31819
C         32.66868        35.84381        -0.36346
C         31.45754        35.01408        -0.00415
C         32.72435        37.23600         0.27795
C         31.38805        38.04639         0.05703
C         32.65536        40.19495         0.36742
C         31.47401        39.49294         0.47433
C         32.65169        41.66971         0.65722
C         31.57457        42.57071         0.11290
C         32.73165        44.40046         1.20141
C         31.71834        43.85582         0.73426
C         35.51045        27.33392         0.60519
C         35.22667        28.69261         0.28739
C         34.04267        29.30654         0.01273
C         35.23861        31.46308        -0.71421
C         33.94512        30.74496        -0.32098
C         35.23286        32.93078        -0.21658
C         33.99498        33.65618        -0.72490
C         35.25050        35.91196        -0.23218
C         33.99531        35.14960        -0.55729
C         35.21520        37.27198        -0.15450
C         33.91767        38.07854        -0.19990
C         35.25232        40.18566         0.37670
C         33.97180        39.41439         0.61809
C         35.28593        41.57875         1.04032
C         33.95328        42.34881         1.03814
C         34.98810        44.59525         0.18570
C         34.15435        43.88109         1.26449
C         35.45314        45.96176         0.57945
C         37.81486        27.36154         1.14789
C         36.52605        26.64340         0.78374
C         37.83189        28.64769         0.25927
C         36.53082        29.44822         0.34915
C         37.84094        31.38305        -0.74902
C         36.53020        30.83529        -0.18332
C         37.81890        32.95341        -0.82866
C         36.51522        33.68524        -0.61353
C         37.76693        35.92594        -0.74812
C         36.58276        35.13302        -0.10883
C         37.77407        37.36522        -0.14776
C         36.43678        38.10807        -0.48509
C         37.67118        40.33549        -0.25768
C         36.40587        39.53866         0.05894
C         37.75827        41.67193         0.52353
C         36.42390        42.39391         0.34614
C         37.71298        44.57674        -0.45021
C         36.36331        43.83359        -0.07357
C         37.75369        46.13655        -0.21573
C         36.52073        46.55163         0.44792
C         40.36416        24.50000         1.33384
C         39.34748        25.29501         1.31226
C         40.37055        27.30167         0.54166
C         39.07296        26.58079         0.96758
C         40.33133        28.79944         1.08173
C         39.09100        29.50955         0.44447
C         40.26248        31.59484        -0.48471
C         39.06814        30.78297        -0.03260
C         40.27374        33.07162        -0.06169
C         39.17318        33.73500        -0.92846
C         40.34171        35.92068        -0.47871
C         39.11584        35.22123        -0.59433
C         40.32387        37.42712        -0.58547
C         38.97316        38.16553        -0.68397
C         40.22830        40.21107         0.49603
C         38.96521        39.53806         0.00449
C         40.28522        41.77292         0.71986
C         39.03479        42.42240         0.04692
C         40.23490        44.59203        -0.19505
C         38.94298        43.94593         0.30261
C         40.27381        45.92053        -0.51675
C         39.08358        46.81877        -0.27195
C         40.46776        48.69755         0.63138
C         39.39160        48.12514         0.31453
C         42.96607        24.63424         1.29682
C         41.62731        25.17904         1.31020
C         42.94101        27.28794         0.90455
C         41.62261        26.53958         0.93740
C         42.85043        28.71999         0.27922
C         41.66699        29.48357         0.84264
C         42.86639        31.64919         0.69788
C         41.87063        30.80589         1.29358
C         42.78853        33.15946         0.72225
C         41.66936        33.74943        -0.25821
C         42.77388        36.02320         0.41009
C         41.55855        35.25702        -0.14460
C         42.90074        37.35925        -0.32924
C         41.59523        38.16984        -0.32483
C         42.83057        40.24770         0.54584
C         41.55728        39.40333         0.56790
C         42.80417        41.78927         0.48887
C         41.53260        42.40879         0.15788
C         42.72851        44.56394        -0.03351
C         41.48695        43.77049        -0.51166
C         42.75839        45.99590        -0.54743
C         41.52113        46.53321        -0.96457
C         42.74720        48.79301         0.36805
C         41.62456        49.44448         0.64518
C         44.05367        25.16072         0.99770
C         45.39713        27.21573         0.11284
C         44.10112        26.44544         0.15301
C         45.39802        28.72854         0.21933
C         44.13774        29.51315         0.62829
C         45.31649        31.70651        -0.08681
C         44.02338        30.94766         0.10993
C         45.32105        33.17086         0.13420
C         44.10995        33.86206         0.38338
C         45.32584        35.96651         0.12652
C         44.10081        35.26747         0.27961
C         45.37221        37.42627        -0.26212
C         44.11441        38.18961         0.04533
C         45.33749        40.34075         0.11333
C         44.10787        39.54633         0.25356
C         45.31857        41.69136        -0.09467
C         44.13865        42.52735         0.35312
C         45.28602        44.62210        -0.15622
C         44.02285        43.83496        -0.44451
C         45.12449        46.06350         0.34791
C         43.89274        46.77888        -0.20982
C         43.81749        48.18498        -0.07665
C         47.62023        27.42645        -0.51826
C         46.55456        26.70753        -0.69824
C         47.85910        28.76768        -0.37741
C         46.52608        29.52253        -0.47840
C         47.88246        31.64983        -0.22864
C         46.60873        30.92531         0.17456
C         47.79908        33.14909        -0.48948
C         46.54908        33.85854         0.04653
C         47.84986        35.98160         0.53574
C         46.55647        35.27133         0.12567
C         47.93101        37.47472         0.28244
C         46.68792        38.18515        -0.15520
C         47.88899        40.31170        -0.01157
C         46.62083        39.60611         0.44897
C         47.86300        41.75033        -0.39059
C         46.51900        42.47041        -0.65704
C         47.75623        44.68949        -0.35254
C         46.50928        43.96630        -0.31991
C         47.49843        46.07132        -0.15694
C         46.44811        46.70912         0.05195
C         50.38924        28.95792        -0.38315
C         49.07603        29.46505         0.13402
C         50.42130        31.66660        -0.28862
C         49.06108        30.97267        -0.24786
C         50.34326        33.17649        -0.62798
C         49.10740        33.79789         0.07018
C         50.38320        35.94799         0.56943
C         49.10957        35.32716        -0.08350
C         50.45127        37.46448         0.24646
C         49.11098        38.16324         0.40359
C         50.28146        40.35988         0.67243
C         49.15547        39.63336         0.39830
C         50.16489        41.88366         0.78476
C         49.13905        42.52745        -0.18863
C         50.20670        44.67807         0.45566
C         49.07378        44.05145        -0.27428
C         51.43716        29.51688        -0.70745
C         52.80443        31.76487        -0.87782
C         51.58867        30.92422        -1.18506
C         52.70135        32.96310        -0.56896
C         51.66715        33.90344        -0.24667
C         52.74603        36.11969         0.42986
C         51.68308        35.20221         0.13981
C         52.80110        37.28812         0.85178
C         51.60562        38.15232         1.00682
C         52.67768        40.56371         1.19993
C         51.53850        39.64411         1.13277
C         52.60505        41.78499         0.91187
C         51.54786        42.67699         0.73680
C         51.30580        44.02000         0.52036
O         36.11462        42.75725        -1.01994
O         38.13565        46.85402        -1.40713
O         42.83335        41.03787         1.76485
O         39.31329        39.54300         1.40395
O         37.94189        30.87740        -2.10325
O         36.54938        30.59327         1.25117
O         36.97565        33.39907        -1.95169
O         34.16435        34.50136        -1.88486
O         47.99856        40.69380        -1.42091
O         35.51242        41.36692         2.42247
O         46.61741        39.50677         1.82979
O         33.01555        41.90681         2.05987
O         44.49210        31.29964        -1.21228
O         45.82926        27.88442         1.33015
O         45.53421        37.48179        -1.76934
O         41.10511        38.13036        -1.67869
O         31.67153        35.49855        -1.36974
O         51.32259        38.74458         2.26614
O         46.75190        38.28435        -1.63361
O         49.56900        43.21338        -1.37431
O         38.73709        38.35531        -2.09516
H         39.57912        38.66607        -2.50166
O         40.34838        42.01062         2.13644
H         39.63942        41.44693         2.54085
O         39.29126        42.23951        -1.35357
H         38.48034        42.50852        -1.85293
O         42.39623        33.56515         2.06538
H         42.89803        33.02535         2.71352
O         32.88266        36.88625         1.65961
H         33.19373        37.68136         2.16781
O         50.19351        33.36794        -2.04028
H         50.70305        32.67333        -2.52854
O         41.02425        31.31050         2.22394
H         40.49100        30.55612         2.59187
O         40.88759        31.17547        -1.44459
H         38.78629        31.20471        -2.49066
O         37.95250        37.33417         1.26350
H         37.41538        36.60802         1.66062
O         46.35296        42.44917        -2.10603
H         46.77292        41.61359        -2.43007
O         37.54195        35.94887        -2.16968
H         37.81921        36.84040        -2.50672
O         51.28473        30.99920        -2.55490
H         51.98474        30.54616        -3.06968
O         41.49537        43.62596        -1.94643
H         40.69721        43.08384        -2.16966
O         47.69325        33.28643        -1.91893
H         47.60872        34.24293        -2.13177
O         41.42947        47.63224        -1.70281
H         42.31529        47.99363        -1.91529
O         32.06209        33.03902        -2.06290
H         32.52267        33.79273        -2.50966
O         44.20388        29.75452         2.04579
H         44.55802        28.93831         2.47294
O         50.89276        31.59757         1.07498
H         50.81961        30.66622         1.38695
O         40.13361        28.82369         2.51312
H         39.20842        28.52678         2.72909
O         35.22873        31.41896        -2.14324
H         35.92825        32.03020        -2.48625
O         50.34836        35.86009         1.98764
H         50.09263        34.94407         2.24402
O         36.33189        38.24305        -1.93419
H         35.37848        38.41758        -2.14602
O         49.08579        29.39947         1.58645
H         48.93451        28.46338         1.84478
O         37.88860        28.18621        -1.12154
H         37.82445        28.98183        -1.71111
O         39.77880        33.26765         1.26467
H         40.53602        33.28293         1.89928
O         37.68079        27.76982         2.52311
H         37.52738        26.97075         3.07077
O         40.41601        27.37680        -0.90897
H         39.49555        27.57319        -1.24016
O         44.53664        42.93844         1.69114
H         44.31475        42.18910         2.29393
O         32.42346        33.50833         1.55755
H         31.89128        33.94738         2.25625
O         43.15263        36.91012        -1.67825
H         43.12494        37.67587        -2.28947
O         34.24012        44.61753        -1.00233
H         34.77908        44.99044        -1.72923
O         46.18357        29.62228        -1.86066
H         46.73171        30.31128        -2.28933
O         50.79560        37.64903        -1.14108
H         50.09510        37.20962        -1.68243
O         34.80131        44.01088         2.50147
H         34.88695        43.11200         2.91750
O         43.33271        27.41538         2.28269
H         43.48716        26.51265         2.63939
O         42.57761        44.61468         1.39187
H         43.36588        45.06633         1.78781
O         42.80689        28.62398        -1.14259
H         41.93811        28.23355        -1.40855
O         41.59085        38.79301         1.87627
H         41.66043        39.51314         2.54075
O         42.51388        36.27914         1.79582
H         42.40450        35.41086         2.25205
O         39.55665        33.65286        -2.31805
H         38.84164        34.10522        -2.82682
O         36.85224        34.99221         1.30718
H         36.24084        34.29818         1.66777
O         33.71817        38.43855        -1.58724
H         32.74803        38.57690        -1.76129
O         38.77437        44.22498         1.69239
H         39.38481        43.62596         2.19473
O         43.94288        43.59818        -1.85053
H         44.79700        43.21255        -2.17371
O         30.26634        40.02723         0.70235
H         30.31101        40.99402         0.85270
O         35.15885        32.93395         1.22720
H         34.20998        32.90077         1.51048
O         43.75521        26.13167        -1.15743
H         42.91719        25.62496        -1.17046
O         34.03623        39.14696         2.04409
H         34.46114        39.95660         2.46923
O         49.14011        33.51444         1.48523
H         49.70368        32.70885         1.64483
O         49.61308        42.15684         2.08111
H         50.02908        41.56800         2.74640
O         49.05370        35.66721        -1.48373
H         49.60423        35.01632        -1.99221
O         42.18564        33.46169        -1.56172
H         41.47618        33.62909        -2.22555
O         44.91300        46.02207         1.77341
H         45.64104        45.51003         2.18634
O         37.53274        40.63785        -1.65713
H         37.20152        39.81529        -2.10347
O         37.88855        44.38106        -1.85473
H         38.04968        45.26631        -2.26783
O         37.94155        41.46786         1.92077
H         37.05489        41.24344         2.35669
O         30.93893        30.56492        -1.98950
H         31.06693        31.46937        -2.36442
O         46.67066        30.78791         1.61050
H         47.48735        30.28030         1.84548
O         31.10228        38.10506        -1.33848
H         30.94480        37.18093        -1.65994
O         47.82009        35.83985         1.96951
H         47.89964        34.88506         2.19077
