         424
 CSIRO Nanostructure Databank - Neutral Graphene Oxide Data Set
C          1.49808         1.99559        -2.11987
C          1.50662         3.40112        -2.26953
C          2.64182         1.32492        -1.74494
C          2.65412         4.14546        -2.02260
C          1.40695         6.36357        -2.01140
C          1.39887         7.70024        -1.82898
C          2.68648         5.63542        -2.32110
C          2.62324         8.47841        -1.73885
C          1.39991        10.65532        -1.96305
C          1.38686        12.03287        -1.95318
C          2.57990         9.91888        -1.64630
C          2.53935        12.78892        -1.59837
C          1.38088        14.99316        -1.91966
C          1.40276        16.37192        -1.94208
C          2.54581        14.23403        -1.60328
C          2.59555        17.08889        -1.66046
C          2.63788        18.51902        -1.70928
C          3.84849         2.04440        -1.50335
C          3.85186         3.47154        -1.64046
C          5.03623         1.36958        -1.14838
C          5.06315         4.19827        -1.40599
C          3.89501         6.34853        -1.75020
C          3.84959         7.79741        -1.63941
C          5.05291         5.64561        -1.49249
C          5.03481         8.52315        -1.26647
C          3.73940        10.64118        -1.27368
C          3.71842        12.08101        -1.22249
C          4.96359         9.92638        -1.01560
C          4.88292        12.80160        -0.83417
C          3.74559        14.93202        -1.29703
C          3.77479        16.36367        -1.33269
C          4.92503        14.20943        -0.90940
C          4.98725        17.07027        -1.07402
C          3.80557        19.19838        -1.48075
C          5.02142        18.49636        -1.17711
C          6.22236         2.07736        -0.88399
C          6.22851         3.50775        -1.00564
C          7.40703         1.39192        -0.47181
C          7.43852         4.23049        -0.65496
C          6.37016         6.37777        -1.46193
C          6.25404         7.82895        -1.02673
C          7.48308         5.61676        -0.78674
C          7.37216         8.52120        -0.56401
C          6.11462        10.62233        -0.58149
C          6.00882        12.06214        -0.16704
C          7.32954         9.94016        -0.38545
C          7.31795        12.81052        -0.15597
C          6.14048        14.92005        -0.60716
C          6.18788        16.35625        -0.75879
C          7.31248        14.20336        -0.22893
C          7.40190        17.06140        -0.64526
C          6.23439        19.18398        -0.99708
C          7.44518        18.48365        -0.75697
C          8.55273         2.08272        -0.07351
C          8.55717         3.49403        -0.12305
C          9.72406         1.30591         0.51955
C          9.69402         4.23813         0.43860
C          8.75980         6.38360        -0.60281
C          8.51891         7.74809         0.03993
C          9.83076         5.65953         0.18586
C          9.82913         8.49953         0.08416
C          8.54001        10.68123        -0.11355
C          8.54587        12.07666        -0.01467
C          9.83535         9.95108        -0.34037
C          9.79959        12.81953         0.11975
C          8.52929        14.99402         0.20634
C          8.69121        16.28473        -0.59279
C          9.81361        14.20328         0.19027
C          9.87919        17.08254        -0.11502
C          8.67966        19.17474        -0.60677
C          9.88842        18.50552        -0.25153
C         11.06247         2.02040         0.44429
C         11.03253         3.46746         0.73069
C         12.26049         1.37050         0.36199
C         12.25053         4.25187         0.69388
C         10.97790         6.35016         0.54455
C         10.97082         7.80716         0.35880
C         12.22392         5.63932         0.79462
C         12.22374         8.54662         0.61912
C         11.04088        10.71208         0.12015
C         11.05084        12.08845         0.19651
C         12.29561         9.95889         0.15150
C         12.29156        12.80664         0.44209
C         11.03995        14.93181         0.38803
C         11.04081        16.39546         0.30814
C         12.23043        14.22783         0.59816
C         12.22877        17.12527         0.52469
C         11.08344        19.22482        -0.00296
C         12.28131        18.56075         0.38382
C         13.53398         2.06006         0.49546
C         13.56084         3.56741         0.35886
C         14.72559         1.40197         0.64234
C         14.68157         4.19461         1.18182
C         13.49981         6.35475         0.88392
C         13.49372         7.82772         0.91686
C         14.70588         5.69343         0.98963
C         14.77894         8.55751         0.83667
C         13.58767        10.69280         0.32883
C         13.52572        12.14131         0.53479
C         14.79741         9.94817         0.73589
C         14.76340        12.83306         0.79501
C         13.46486        14.93051         0.96786
C         13.45391        16.42962         0.93634
C         14.75614        14.22763         0.91647
C         14.75049        17.15266         0.67624
C         13.45880        19.26163         0.72209
C         14.66513        18.55398         1.30028
C         15.99631         2.10683         0.77682
C         16.00268         3.51770         0.93517
C         17.22061         1.42166         0.76471
C         17.20590         4.24248         1.02895
C         15.96859         6.39920         1.04752
C         15.98942         7.82330         0.98695
C         17.19876         5.68776         1.09636
C         17.22528         8.53444         1.04334
C         16.01147        10.67702         0.88546
C         16.00435        12.10648         0.90460
C         17.22851         9.95845         1.03122
C         17.22201        12.80790         1.12736
C         15.97341        14.96046         1.08077
C         15.98434        16.38227         1.08743
C         17.20103        14.24939         1.22295
C         17.18336        17.09069         1.22509
C         15.97485        19.26406         1.07634
C         17.17374        18.55563         1.10197
C         18.44766         2.11297         0.90988
C         18.45283         3.54635         1.02056
C         19.68368         1.41786         0.91878
C         19.67840         4.26072         1.14242
C         18.44066         6.39502         1.13297
C         18.45151         7.81907         1.13134
C         19.68577         5.68267         1.17800
C         19.68923         8.54235         1.15522
C         18.46438        10.67020         1.10799
C         18.45293        12.09516         1.19435
C         19.68660         9.95148         1.12795
C         19.69411        12.78790         1.45021
C         18.39128        14.97103         1.46506
C         18.40961        16.38512         1.43431
C         19.61705        14.22003         1.78892
C         19.67125        17.10015         1.43450
C         18.42931        19.21310         1.01058
C         19.65539        18.51996         1.13730
C         20.90221         2.08649         1.09298
C         20.92192         3.53757         1.25140
C         22.13000         1.38992         0.98730
C         22.11680         4.21209         1.47646
C         20.92583         6.40196         1.24445
C         20.93107         7.81416         1.21247
C         22.16997         5.65744         1.44959
C         22.16641         8.55991         1.30451
C         20.96579        10.71381         0.90359
C         20.91880        12.14057         1.39622
C         22.19676         9.94372         1.30821
C         22.16836        12.85834         1.56292
C         20.92323        14.98948         1.89927
C         20.89421        16.43286         1.58324
C         22.17545        14.23413         1.72743
C         22.13974        17.10632         1.35079
C         20.87819        19.19116         0.94798
C         22.11464        18.50816         1.00986
C         23.35854         2.04194         1.17433
C         23.35753         3.40828         1.82274
C         24.56705         1.41445         0.87795
C         24.64391         4.16826         1.61884
C         23.37349         6.33256         1.60188
C         23.45950         7.78344         1.20401
C         24.63094         5.60802         2.06440
C         24.62539         8.54153         1.79392
C         23.43572        10.69843         1.44645
C         23.43105        12.11812         1.51482
C         24.65871         9.99965         1.58588
C         24.67321        12.81726         1.61290
C         23.43593        15.01691         1.98802
C         23.37579        16.42765         1.44203
C         24.70063        14.27235         1.64113
C         24.58247        17.10472         1.16297
C         23.32930        19.18076         0.75997
C         24.55467        18.50027         0.81949
C         25.81181         2.09824         0.97452
C         25.81376         3.52521         1.30389
C         27.01053         1.43782         0.74907
C         27.08875         4.23008         1.29282
C         25.91171         6.34090         1.73107
C         25.93146         7.79680         1.93264
C         27.09038         5.66865         1.46809
C         27.17707         8.54842         1.68531
C         25.89643        10.68571         1.64165
C         25.88790        12.10100         1.61130
C         27.14567         9.95017         1.59711
C         27.18626        12.83968         1.77588
C         25.87565        14.98098         1.45572
C         25.84605        16.41890         1.21368
C         27.14106        14.28008         1.29259
C         27.02704        17.11805         0.95323
C         25.78680        19.18473         0.59822
C         26.99322        18.51813         0.67957
C         28.27536         2.09868         0.89871
C         28.28438         3.54072         1.13201
C         29.45016         1.38918         0.85086
C         29.54872         4.24438         1.14983
C         28.35386         6.38561         1.39397
C         28.37427         7.81340         1.46363
C         29.55316         5.65813         1.25168
C         29.59414         8.52825         1.15013
C         28.36928        10.67250         1.28953
C         28.38214        12.06547         1.28967
C         29.56044         9.92518         1.00097
C         29.66187        12.85329         1.17049
C         28.28307        14.93512         0.92728
C         28.38023        16.44128         0.99998
C         29.43586        14.13400         0.35692
C         29.32270        17.00358        -0.08008
C         28.28745        19.28884         0.62503
C         29.44695        18.50726         0.05132
C         30.76987         2.02063         1.16945
C         30.76579         3.52146         1.00346
C         31.89294         1.34398         0.44511
C         31.99013         4.19471         0.76599
C         30.86578         6.37732         1.41089
C         30.81628         7.81452         0.97242
C         32.05082         5.63326         0.85314
C         32.02766         8.49307         0.65486
C         30.71034        10.61478         0.32171
C         30.83215        12.07527         0.63311
C         32.02446         9.88880         0.41833
C         31.96973        12.74936         0.24084
C         30.72311        14.90075         0.13739
C         30.66835        16.30442        -0.10303
C         31.93912        14.19415         0.04657
C         31.82295        17.00459        -0.43772
C         30.61381        19.15156        -0.18920
C         31.84619        18.44263        -0.48921
C         33.05739         2.02646         0.11325
C         33.13914         3.46077         0.32137
C         34.20664         1.34307        -0.37405
C         34.35356         4.12649         0.05476
C         33.23809         6.32474         0.65188
C         33.27379         7.77102         0.57656
C         34.47385         5.54143         0.44400
C         34.46972         8.47509         0.30504
C         33.22271        10.58948         0.15777
C         33.19635        12.01892        -0.02682
C         34.46572         9.88084         0.08230
C         34.37087        12.71485        -0.35149
C         33.12584        14.84315        -0.39939
C         33.03259        16.25079        -0.91649
C         34.33053        14.14585        -0.55082
C         34.32231        17.00791        -0.79832
C         33.03791        19.12405        -0.66520
C         34.30205        18.43503        -0.76735
C         35.40773         2.02064        -0.64687
C         35.48766         3.44840        -0.44403
C         36.55195         1.31376        -1.09897
C         36.68581         4.16071        -0.82333
C         35.77380         6.25580         0.18368
C         35.76448         7.75558         0.26471
C         36.81046         5.56841        -0.60993
C         36.98805         8.48039        -0.20845
C         35.66302        10.59560        -0.31428
C         35.60444        12.00386        -0.54525
C         36.88903         9.91738        -0.54256
C         36.76660        12.70443        -0.98591
C         35.54525        14.85031        -0.88822
C         35.53157        16.30572        -0.90029
C         36.73779        14.15505        -1.10502
C         36.75676        17.02302        -0.98874
C         35.51153        19.13889        -0.79040
C         36.74972        18.45387        -0.90604
C         37.71312         1.99910        -1.48117
C         37.74389         3.41873        -1.42083
C         38.87388         1.28015        -1.96571
C         38.87479         4.11721        -2.04403
C         37.95210         6.31957        -1.04894
C         38.07561         7.68565        -0.81846
C         38.99865         5.63211        -1.85188
C         39.32073         8.42078        -1.11952
C         38.02177        10.59716        -1.04986
C         37.94919        11.99626        -1.27046
C         39.26083         9.87822        -1.32062
C         39.09430        12.71662        -1.93518
C         37.97194        14.87423        -1.34080
C         37.98415        16.32510        -1.21958
C         39.15927        14.18842        -1.60009
C         39.17635        17.04280        -1.33587
C         37.97985        19.15012        -0.92265
C         39.19558        18.46053        -1.10339
C         40.01180         1.92251        -2.35790
C         40.08821         3.35992        -2.38580
C         41.24002         4.04459        -2.72617
C         40.33424         6.22230        -2.03209
C         40.52651         7.65354        -1.67745
C         41.35224         5.45467        -2.55367
C         41.54391         8.45418        -2.36694
C         40.40488        10.54861        -1.75696
C         40.41648        11.99979        -1.81867
C         41.53021         9.81007        -2.28398
C         41.58201        12.72331        -1.90559
C         40.41024        14.87429        -1.75265
C         40.44057        16.38571        -1.82965
C         41.57292        14.14846        -1.93511
C         41.66777        17.04090        -1.25357
C         40.44778        19.12609        -0.97835
C         41.64858        18.38160        -0.95441
O         36.75892         8.23623         1.23602
O         40.42966         7.95989        -0.24857
O         35.49518         5.68040         1.51085
O         10.08642         3.82080         1.78792
O         13.14058        10.21524        -1.02923
O         20.17079        14.58729         3.09871
O         38.45156         5.06666        -3.09126
O         25.10879         8.18218         3.12445
O         12.64852         8.38839         2.02022
O         13.34887        15.75491         2.22768
O         23.26655         3.15315         3.26634
H         23.59432         3.96843         3.72000
O         30.02554        13.30238         2.52585
H         30.44817        12.54696         2.98739
O         32.80830        16.10271        -2.38549
H         32.94319        16.98962        -2.78338
O         40.49513        16.67683        -3.28634
H         40.48481        17.65398        -3.37884
O          9.44504         1.08046         1.91421
H          9.47585         1.96342         2.35169
O         21.08628        10.84273        -0.57240
H         21.13542         9.93429        -0.93965
O         27.37761        12.99488         3.23372
H         28.30746        13.31341         3.34827
O         29.00165        13.71286        -0.97271
H         28.78248        14.53826        -1.46678
O         29.00246        16.77684         2.28233
H         28.50407        16.31064         2.98706
O          6.76095         6.46124        -2.88922
H          7.65721         6.87961        -2.90231
O          2.85981         5.73932        -3.78167
H          3.79035         5.50089        -3.98270
O         23.48135        15.18817         3.45318
H         23.42036        14.29693         3.85847
O          9.97440         9.89631        -1.81391
H         10.92387         9.74652        -2.01725
O         28.68189        16.68621        -1.35737
H         29.24678        17.05062        -2.07158
O          8.99587        15.88196        -1.96635
H          9.07985        16.69597        -2.50601
O         23.77192         7.75239        -0.24313
H         23.04166         7.27490        -0.69169
O         14.35126         3.95498         2.58047
H         15.03321         4.38908         3.13409
O         31.01759         1.76948         2.61586
H         31.81049         2.28974         2.86830
O          5.61544        12.00510         1.27480
H          5.41103        12.92494         1.55050
O         24.54152         5.58191         3.53991
H         24.65549         6.52280         3.83203
O         13.84637         3.85528        -1.04245
H         13.27478         3.28271        -1.59466
O         30.33967        10.59136        -1.12520
H         29.72941        11.34776        -1.27912
O         14.46755        18.43572         2.74126
H         13.95570        17.61622         2.92533
O         31.10399         6.42052         2.87822
H         31.99930         6.79914         3.01578
O         14.82386        17.31343        -0.76735
H         15.61824        17.85442        -0.96490
O         38.77466        12.67910        -3.38360
H         39.42750        13.25732        -3.83429
O          8.12132         7.47573         1.41311
H          7.96339         8.33136         1.86390
O          9.31084         6.64276        -1.94121
H          9.52694         5.77733        -2.34827
O         28.64345        19.62783         1.98489
H         28.86353        18.77633         2.43334
O          8.28921        15.39639         1.58649
H          8.30126        14.59132         2.14503
H          0.57014         1.44010        -2.31537
H          0.58444         3.89850        -2.60005
H          2.64001         0.23091        -1.63556
H          0.45598         5.81198        -2.02222
H          0.43957         8.21282        -1.66660
H          0.48953        10.12050        -2.26581
H          0.46093        12.54978        -2.23911
H          0.43897        14.47737        -2.14955
H          0.48913        16.93136        -2.19041
H          1.71489        19.06674        -1.94961
H          5.02697         0.27342        -1.05533
H          3.83040        20.29637        -1.53791
H          7.38828         0.29350        -0.41313
H          6.25153        20.28163        -1.07022
H          9.79454         0.30153         0.02997
H          8.68831        20.27055        -0.70182
H         12.27672         0.27423         0.25064
H         11.07756        20.32148        -0.08694
H         14.74423         0.30085         0.66252
H         13.43994        20.36267         0.71599
H         17.23314         0.32692         0.65548
H         15.99626        20.36332         1.02106
H         19.68391         0.32505         0.79061
H         18.45028        20.30049         0.84266
H         22.11929         0.33315         0.67826
H         20.87178        20.26602         0.71296
H         24.56222         0.37147         0.52458
H         23.31435        20.25387         0.51862
H         27.00244         0.35922         0.53088
H         25.76744        20.26429         0.38645
H         29.42425         0.30327         0.67269
H         28.14579        20.25277         0.07324
H         31.85146         0.25089         0.32345
H         30.66419        20.24568        -0.07439
H         34.15815         0.25337        -0.51641
H         33.04095        20.22404        -0.64989
H         36.50981         0.21829        -1.18708
H         35.50584        20.23750        -0.73600
H         38.82875         0.18147        -1.97988
H         37.98913        20.24087        -0.78038
H         40.89160         1.34592        -2.67947
H         42.13168         3.48183        -3.03797
H         42.33416         5.91212        -2.74117
H         42.32417         7.94877        -2.95324
H         42.33387        10.37673        -2.77510
H         42.55589        12.21333        -1.91194
H         42.53292        14.66645        -2.06345
H         42.61904        16.49118        -1.22459
H         40.46572        20.20445        -0.76770
H         42.58140        18.88929        -0.66696
