         661
 CSIRO Nanostructure Databank - Neutral Graphene Oxide Data Set
C          6.07885        31.58710        -1.37078
C          6.03558        32.92880        -1.45709
C          8.34854        27.33451         0.00503
C          8.20439        28.77795         0.09797
C          7.15007        29.51918        -0.60634
C          8.38082        31.66556        -0.39756
C          7.19447        30.88119        -0.74720
C          8.39558        33.05511        -0.60689
C          7.11070        33.81187        -0.87621
C          8.49101        35.89942        -1.25931
C          7.33892        35.05492        -1.75271
C          8.47370        37.25866        -1.42364
C         10.76686        23.15714         0.55454
C         10.71318        24.52354         0.84450
C          9.56895        25.26556         0.47432
C         10.69098        27.45350         0.78881
C          9.48782        26.69020         0.49926
C         10.73838        28.80724         0.56388
C          9.51024        29.57690         0.39305
C         10.77313        31.71046         0.20872
C          9.57350        31.00137         0.01722
C         10.78936        33.13394         0.01254
C          9.59913        33.79378        -0.43068
C         10.83908        35.90320        -0.48769
C          9.64644        35.20258        -0.70047
C         10.88588        37.32666        -0.88021
C          9.62246        38.08359        -1.09282
C         10.77465        40.24142        -0.49357
C          9.61385        39.44688        -1.06321
C         10.83853        41.71226        -0.81701
C         13.32195        18.86778         0.07992
C         13.27060        20.26673         0.32027
C         12.05112        20.96396         0.24540
C         13.23896        23.00356         1.25902
C         11.90935        22.29123         0.81968
C         13.21160        24.49662         1.45273
C         11.89047        25.24463         1.41103
C         13.21245        27.43342         1.14518
C         11.87124        26.78486         1.45898
C         13.23684        28.81884         0.92222
C         12.04527        29.50923         0.30141
C         13.18091        31.71067         0.73655
C         12.00774        31.01096         0.51496
C         13.11188        33.20315         0.99831
C         11.97478        33.87888         0.26306
C         13.24443        36.02024         0.25817
C         12.01387        35.26031         0.01046
C         13.28886        37.39978        -0.01077
C         12.13679        38.08192        -0.60851
C         13.30411        40.23698        -0.68212
C         12.10634        39.55389        -0.63394
C         13.30818        41.64822        -1.23310
C         12.02328        42.40265        -0.94826
C         13.28247        44.54905        -1.02988
C         12.07249        43.83178        -0.95271
C         13.31850        45.96689        -1.00877
C         15.84123        14.67482        -0.36969
C         15.62746        15.82938         0.64214
C         14.46658        16.70739         0.25139
C         15.78608        18.78867         0.40381
C         14.50627        18.09092         0.25749
C         15.79334        20.28601         0.16524
C         14.50866        20.98559         0.57230
C         15.71533        23.12641         0.98487
C         14.50807        22.33304         0.91867
C         15.72401        24.51831         1.18574
C         14.47409        25.26457         1.30025
C         15.69289        27.40953         1.39521
C         14.42231        26.66119         1.27289
C         15.67628        28.90574         1.36083
C         14.42319        29.60698         1.03183
C         15.67336        31.77042         1.05643
C         14.42986        31.00662         0.92112
C         15.63176        33.20271         1.07712
C         14.43495        33.93395         0.88491
C         15.60421        36.19825         1.12674
C         14.42435        35.33279         0.70001
C         15.68082        37.51762         0.39697
C         14.51008        38.17106         0.03324
C         15.76873        40.29581        -0.37740
C         14.53450        39.55238        -0.41442
C         15.79676        41.73092        -0.70053
C         14.56750        42.42638        -0.95363
C         15.76988        44.56060        -1.15522
C         14.54591        43.82545        -1.06629
C         15.78197        45.95307        -1.13327
C         14.53414        46.68644        -1.04261
C         15.80342        48.80801        -1.07375
C         14.58207        48.10102        -0.99407
C         15.86461        50.21802        -0.92493
C         18.29671        10.15662        -0.05683
C         18.24115        11.63025         0.27121
C         17.02996        12.43403        -0.16325
C         18.24124        14.48558         0.37048
C         17.03800        13.80709        -0.00733
C         18.25263        15.89052         0.79058
C         16.93130        16.62680         0.85462
C         18.26931        18.77126         0.53151
C         16.94964        18.09135         0.58342
C         18.28632        20.27709         0.64790
C         16.99197        20.95070         0.77834
C         18.28613        23.15270         0.92263
C         16.98215        22.41459         0.74825
C         18.22713        24.59053         1.21712
C         16.99148        25.22552         1.24230
C         18.18882        27.45925         1.52609
C         16.96802        26.70681         0.97049
C         18.21401        28.88267         0.94501
C         16.93017        29.63545         0.99496
C         18.18512        31.79867         1.07456
C         16.91543        31.10457         1.08669
C         18.17774        33.18697         1.06017
C         16.91449        33.91983         1.23461
C         18.22899        36.08687         0.91729
C         16.93022        35.42461         1.23021
C         18.22760        37.47950         0.40357
C         16.94888        38.19606         0.15750
C         18.20386        40.43393         0.25084
C         16.95309        39.64976        -0.05618
C         18.26488        41.76999        -0.46973
C         17.01663        42.41685        -0.78004
C         18.28094        44.57879        -1.21259
C         17.02258        43.78022        -1.45895
C         18.28216        45.94148        -1.19916
C         17.02848        46.68830        -1.23012
C         18.25828        48.88923        -1.65374
C         17.03631        48.07301        -1.25973
C         18.38506        50.14529        -0.78030
C         17.08585        50.92490        -0.82332
C         18.34998        53.04399        -0.53547
C         17.12469        52.29368        -0.59511
C         18.32246        54.35562        -0.10033
C         20.82165         5.92146        -0.18178
C         20.73438         7.33776        -0.38059
C         19.56489         8.03700        -0.17026
C         20.76930        10.20704        -0.20699
C         19.50299         9.48731        -0.16915
C         20.79377        11.62189        -0.08385
C         19.50746        12.33404        -0.17013
C         20.79416        14.48377         0.30071
C         19.51291        13.85272         0.03304
C         20.83719        15.85395         0.93507
C         19.54005        16.64660         0.74050
C         20.77955        18.78170         0.98760
C         19.51982        18.00848         0.79119
C         20.80223        20.26306         0.94622
C         19.49824        20.93057         1.29650
C         20.73304        23.12106         1.21582
C         19.54623        22.42306         1.12793
C         20.70236        24.56410         1.33942
C         19.50094        25.28191         1.31324
C         20.65794        27.45537         1.40408
C         19.50109        26.73435         1.34993
C         20.62115        28.94656         1.67962
C         19.54335        29.62106         0.84208
C         20.67431        31.79471         1.31110
C         19.45753        31.10406         1.12794
C         20.70786        33.20933         1.21261
C         19.45090        33.89996         0.72577
C         20.70383        36.06093         0.73776
C         19.39641        35.38818         0.92728
C         20.75424        37.53777         0.49700
C         19.47466        38.27727         0.42867
C         20.76379        40.26938        -0.09505
C         19.46823        39.60555         0.17245
C         20.76504        41.69040        -0.51882
C         19.47200        42.41023        -0.65276
C         20.83515        44.55528        -1.05616
C         19.54327        43.80364        -1.14587
C         20.82877        46.02650        -1.07372
C         19.52131        46.76742        -0.89911
C         20.83003        48.84315        -1.39127
C         19.56783        48.05315        -1.72477
C         20.80525        50.27884        -1.35983
C         19.61848        50.96960        -1.12775
C         20.81144        53.11778        -0.85543
C         19.61833        52.39758        -0.89751
C         20.84087        54.55894        -0.55381
C         19.49718        55.22036        -0.16558
C         20.76201        57.10270         0.80099
C         19.57664        56.45639         0.61323
C         20.72782        58.50191         1.37531
C         23.32359         3.19355         0.24209
C         22.08967         3.82464         0.07905
C         23.28165         5.87966        -0.73435
C         22.01094         5.20054        -0.25871
C         23.23426         7.36335        -0.37124
C         21.96010         8.05825        -0.90622
C         23.19750        10.20527        -0.48194
C         21.99524         9.52429        -0.50048
C         23.29550        11.59959         0.07883
C         21.99035        12.35217        -0.05901
C         23.25422        14.51201         0.13736
C         21.97275        13.76860         0.13918
C         23.19170        15.98968         0.02068
C         22.05649        16.61958         0.44637
C         23.32127        18.82376         0.47002
C         22.07615        18.05531         0.77688
C         23.27546        20.31358         0.59911
C         21.97615        20.97677         0.86780
C         23.18687        23.13495         0.81670
C         22.00738        22.42961         1.00706
C         23.32556        24.53336         1.37071
C         21.98703        25.26211         1.55059
C         23.11013        27.52262         0.92828
C         21.95129        26.75666         1.50447
C         23.18739        28.90089         1.56502
C         21.93563        29.68056         1.54037
C         23.20704        31.78559         1.47717
C         21.93871        31.05700         1.49477
C         23.21054        33.24275         1.40245
C         21.92687        33.93961         1.28459
C         23.10837        36.11891         1.48508
C         21.90611        35.34252         1.18345
C         23.13552        37.63075         1.34684
C         21.96979        38.31429         0.78971
C         23.22479        40.39969         0.43126
C         22.01174        39.66671         0.44588
C         23.28486        41.74832        -0.01736
C         21.99672        42.46824        -0.18672
C         23.37328        44.63558        -0.43312
C         22.02027        43.92859        -0.39622
C         23.29834        45.99767        -1.09124
C         22.03032        46.70016        -1.16284
C         23.30733        48.83588        -1.27675
C         22.03334        48.15144        -1.30009
C         23.34913        50.24911        -1.25876
C         22.09793        50.98812        -1.45866
C         23.35729        53.11129        -0.70547
C         22.10678        52.49900        -1.17235
C         23.34499        54.47449        -0.21534
C         22.08426        55.19643        -0.09543
C         23.25460        57.14613         0.85039
C         22.04033        56.49194         0.45336
C         23.24339        58.28890         1.67020
C         22.01061        58.93201         2.03152
C         23.21757        60.50395         3.44954
C         22.00703        60.00730         2.89800
C         24.53800         3.89479         0.15313
C         25.75828         6.00466        -0.20429
C         24.56988         5.25741        -0.20668
C         25.80379         7.39341        -0.52679
C         24.50945         8.04630        -0.82988
C         25.73285        10.28024        -0.77109
C         24.46338         9.55413        -0.85617
C         25.67407        11.71009        -0.76210
C         24.48938        12.35012        -0.47744
C         25.54800        14.58249        -1.06043
C         24.49432        13.81394        -0.29536
C         25.53149        16.06776        -0.78806
C         24.39519        16.71482        -0.39981
C         25.48662        19.00020        -0.82715
C         24.20150        18.21383        -0.60393
C         25.56549        20.43309        -0.40614
C         24.39117        21.11446         0.06304
C         25.54899        23.27820         0.00070
C         24.38709        22.50836         0.28923
C         25.60469        24.67530         0.24986
C         24.41817        25.38339         0.72457
C         25.57792        27.57537         0.47211
C         24.40295        26.75220         0.83543
C         25.68458        28.98157         0.94245
C         24.48115        29.65513         1.48271
C         25.66344        31.82552         0.99500
C         24.41693        31.11641         1.44889
C         25.70781        33.28265         1.34716
C         24.41431        33.94036         1.36043
C         25.69094        36.16116         1.19263
C         24.40254        35.41501         1.25840
C         25.75500        37.64209         1.39396
C         24.45374        38.36524         1.29814
C         25.73970        40.43285         0.70828
C         24.50122        39.61305         0.43384
C         25.75582        41.84466         0.19469
C         24.48166        42.40057        -0.29284
C         25.78922        44.40185        -1.20126
C         24.43224        43.69049        -1.07897
C         25.77211        45.90666        -1.37201
C         24.49055        46.65939        -1.30864
C         25.76232        48.78570        -1.33553
C         24.51472        48.09879        -1.35141
C         25.78155        50.18663        -1.07618
C         24.57575        50.93037        -1.03400
C         25.77842        52.99968        -0.36371
C         24.57226        52.36466        -0.72092
C         25.85596        54.50247        -0.35216
C         24.54105        55.12895         0.05206
C         25.76413        57.00459         1.17461
C         24.56691        56.61192         0.32980
C         25.68726        58.13811         2.00485
C         24.47261        58.80143         2.23777
C         24.41939        59.92200         3.12174
C         26.97070         8.16174        -0.53307
C         28.17280        10.36320        -0.58538
C         26.96455         9.58984        -0.69074
C         28.18850        11.75486        -0.71908
C         26.92858        12.45040        -1.19040
C         28.06523        14.65328        -0.80292
C         26.89794        13.92806        -0.89145
C         28.04962        16.10312        -0.86683
C         26.76336        16.74660        -1.36086
C         28.02988        18.96653        -1.00649
C         26.74685        18.26347        -1.20024
C         27.96258        20.43676        -1.08804
C         26.72604        21.13488        -0.67482
C         28.03573        23.30628        -0.46126
C         26.70416        22.64169        -0.74076
C         28.05050        24.70187        -0.21320
C         26.81197        25.37982         0.03155
C         28.13464        27.50358         0.32739
C         26.84272        26.84277         0.09394
C         28.13688        28.87215         0.83253
C         26.88054        29.64974         0.88912
C         28.15368        31.74828         1.21823
C         26.96291        31.07782         1.16276
C         28.18919        33.17415         1.73931
C         26.91878        33.93876         1.36041
C         28.26278        36.15674         1.15389
C         26.97916        35.40120         1.16046
C         28.30567        37.63719         1.49536
C         27.03404        38.35242         1.07130
C         28.25641        40.50642         0.86175
C         27.01992        39.68823         0.82578
C         28.23649        41.85747         0.25249
C         27.06329        42.47102        -0.13411
C         28.24965        44.50980        -0.87953
C         27.05618        43.79539        -0.73151
C         28.26589        45.90922        -1.16632
C         27.04259        46.64459        -1.24806
C         28.25086        48.75715        -1.56989
C         26.99069        48.04435        -1.38043
C         28.35679        50.23182        -1.03475
C         27.04166        50.77939        -0.57652
C         28.29116        52.93769         0.04445
C         26.99700        52.24171        -0.13887
C         28.22841        54.29764         0.46776
C         27.04619        55.02642         0.42555
C         26.95455        56.28498         1.06706
C         29.35236        12.53770        -0.55245
C         30.51687        14.72042        -0.56124
C         29.33986        13.95258        -0.64563
C         30.50201        16.13540        -0.64548
C         29.23585        16.82556        -0.81084
C         30.48245        19.01501        -0.76039
C         29.22933        18.28481        -0.89197
C         30.49110        20.39610        -0.69924
C         29.27685        21.18455        -0.95654
C         30.47028        23.34207        -0.63950
C         29.25471        22.63146        -0.62507
C         30.49752        24.75098        -0.51808
C         29.28267        25.42390        -0.23684
C         30.60105        27.51286         0.17613
C         29.32063        26.82495         0.10159
C         30.65337        28.84845         0.52867
C         29.45595        29.58496         0.96345
C         30.70620        31.81278         1.01863
C         29.41613        31.08523         0.72546
C         30.74223        33.17755         1.09709
C         29.51027        33.92861         1.46774
C         30.70780        36.06806         0.58960
C         29.54844        35.41280         1.32090
C         30.75869        37.57962         0.81634
C         29.59417        38.29553         1.02511
C         30.80968        40.47783         0.58404
C         29.57487        39.78118         1.00265
C         30.79656        41.78733         0.18757
C         29.53697        42.64092         0.25652
C         30.81192        44.56545        -0.75284
C         29.55043        43.72398        -0.83046
C         30.80981        45.90182        -1.10443
C         29.53657        46.60001        -1.32389
C         31.23990        48.98450        -0.86640
C         29.45288        47.94425        -1.67264
C         30.83829        50.24677        -0.28783
C         29.60142        50.85793        -0.46146
C         29.47104        52.21312         0.01271
C         31.70818        16.87423        -0.60440
C         32.97519        18.98938        -0.68347
C         31.74541        18.28407        -0.66341
C         33.03979        20.40165        -0.68729
C         31.75767        21.12234        -0.48615
C         32.94934        23.23653        -1.25440
C         31.75440        22.60976        -0.57351
C         32.93798        24.76973        -1.18324
C         31.74179        25.48377        -0.64306
C         33.04837        27.58349        -0.31545
C         31.81062        26.82311        -0.25558
C         33.14166        28.90059         0.11778
C         31.94023        29.54608         0.67174
C         33.22445        31.75915         0.74384
C         31.95953        31.03307         0.94928
C         33.21470        33.18497         0.78602
C         31.99742        33.92211         0.93574
C         33.22409        36.04744         0.60201
C         32.00596        35.32980         0.81552
C         33.22785        37.51925         0.54777
C         32.03883        38.24334         0.66710
C         33.31296        40.43203         0.45284
C         32.07684        39.74296         0.95001
C         33.28762        41.74461         0.04695
C         32.03744        42.48526        -0.10283
C         33.30837        44.53840        -0.59140
C         32.03709        43.83223        -0.47365
C         33.33582        45.88495        -0.83303
C         32.13192        46.68656        -1.23218
C         32.07140        47.99855        -0.44201
C         34.22960        21.15050        -0.71010
C         35.42583        23.31879        -0.76848
C         34.25475        22.57931        -0.83440
C         35.50604        24.75107        -0.98106
C         34.23926        25.50199        -1.23631
C         35.54107        27.71547        -0.93981
C         34.23033        26.97840        -0.95523
C         35.59954        29.00891        -0.22789
C         34.38956        29.63682         0.15663
C         35.70527        31.70811         0.82351
C         34.40083        31.01880         0.54402
C         35.66440        33.18930         0.56237
C         34.45825        33.89535         0.59465
C         35.65908        36.04361         0.12680
C         34.42279        35.33308         0.49037
C         35.68219        37.51217         0.22408
C         34.50739        38.20570         0.44015
C         35.80339        40.34198         0.06692
C         34.60220        39.69985         0.72216
C         35.76603        41.68383        -0.26262
C         34.54546        42.43674        -0.23869
C         34.53678        43.79444        -0.48036
C         36.67733        25.45039        -0.84312
C         38.05488        27.60956        -0.78323
C         36.80839        26.91041        -1.26105
C         38.08390        28.94790        -0.45094
C         36.85796        29.68078        -0.13024
C         38.15220        31.74949         0.17232
C         36.92065        31.02518         0.25024
C         38.19208        33.14221         0.33488
C         36.96582        33.91245         0.76442
C         38.23592        36.04942         0.21621
C         36.95924        35.29682         0.16111
C         38.19303        37.43952         0.11143
C         36.97315        38.18339         0.10770
C         36.99176        39.57477        -0.04266
C         39.33196        29.66041        -0.36136
C         40.61065        31.76762        -0.15854
C         39.37444        31.02447        -0.12421
C         40.62823        33.12431        -0.00741
C         39.41185        33.87177         0.20145
C         39.42729        35.28425         0.23763
O         36.26909        35.45318        -1.10575
O         20.42748        43.94724        -2.33579
O         30.54806        48.69941        -2.08377
O         22.07858        26.08295         2.79371
O         11.84093        37.54203        -1.99219
O         25.97698        27.47491        -0.94882
O         15.70162        28.19465         2.63359
O         27.67236        35.79871        -0.11686
O         28.64332        20.98112        -2.28212
O         25.91473        18.90352        -2.22682
O         20.07066        55.35482        -1.51199
O         12.43079        22.32024         2.20880
O         24.29639        14.13921         1.13318
O         25.62844        41.51192         1.65885
O         24.94572        35.85757        -0.05090
O         19.41528        13.18981        -1.31107
O         28.83374        29.04782         2.15106
O         25.88703        44.99131        -2.54430
O         21.57359        18.28016         2.14019
O         16.99013        34.73185         2.52486
O         24.41565         8.72437        -2.10117
O         22.17834        51.96543        -2.54484
O         24.01379        29.02448         2.75651
O          8.51343        29.32099         1.42704
O         17.74119        22.91225        -0.45478
O         34.66078        27.77973        -2.12017
O         33.47886        25.26972        -2.46889
O         25.14700        38.28330         2.57045
O         17.69943        37.45260        -0.98913
O         28.93361        40.42057         2.19346
O         17.46788        29.11506        -0.29069
O         32.09840        30.05630         2.05860
O         22.93617        36.98260         2.65425
O         18.47883        19.63527        -0.67207
O         26.79484        16.42812        -2.74753
O         23.88846        19.41334         1.65443
O         29.83322        34.84571         2.61276
O         26.91265        51.11339         0.83382
O         20.94440        40.64385        -1.52693
O         28.27668        49.93654        -2.44808
O         21.70982        43.40548         0.94100
O         12.43416        24.76662         2.67779
O         20.91834        36.59006        -0.65313
O         31.89406        21.98593         0.73933
O         17.57094        16.21907         2.10170
O         29.61742        42.99741        -2.09206
H         29.62434        43.65140        -2.82232
O         29.58317        43.30192         1.54748
H         29.46434        42.60609         2.23308
O         12.24435        29.33977        -1.15645
H         13.08972        29.77905        -1.39227
O         29.33282        31.15503        -0.74807
H         29.08890        32.06890        -1.00976
O         18.27897        11.68923         1.74106
H         17.48666        11.22309         2.08153
O         25.52719        31.84208        -0.48441
H         24.84843        32.51276        -0.71727
O         20.24864        29.09561         3.08773
H         20.99134        28.75645         3.63335
O         18.02620        27.53283         2.95781
H         18.77657        28.06826         3.31885
O         17.97703        49.39302        -2.98302
H         17.69728        48.63576        -3.53999
O         16.09301        15.26855        -1.64689
H         16.39311        14.57120        -2.26544
O         23.17225         7.47068         1.06702
H         23.89956         6.93678         1.45149
O         26.96042        12.36571        -2.65081
H         26.27295        13.00311        -2.97553
O         19.28240        20.69571         2.73055
H         20.11621        20.90076         3.20532
O         22.72404        27.74268        -0.46159
H         23.52456        27.97007        -0.98296
O         23.86485        24.28378         2.70637
H         23.54997        25.02368         3.27933
O         24.69263        39.11995        -0.93044
H         23.83794        38.78156        -1.27404
O         28.32963        37.71412         2.94771
H         28.33605        38.67229         3.18233
O         24.77480        57.27224        -0.97179
H         25.46075        56.73972        -1.44694
O          7.61739        34.64915        -3.10277
H          8.52128        34.27328        -3.13319
O         16.95477        26.74011        -0.48121
H         17.69486        26.19206        -0.81712
O         32.75620        22.86417        -2.64583
H         33.20312        23.55694        -3.18871
O          6.62985        34.31458         0.40392
H          6.47686        33.54491         0.99129
O         26.46192        22.91343        -2.17643
H         27.13554        22.38863        -2.67293
O         19.61606        58.67033         2.26206
H         19.79487        58.16156         3.07893
O         18.55784        49.70558         0.59043
H         18.54891        50.49588         1.16886
O         19.74261        47.61684        -3.09175
H         19.86857        48.41648        -3.64645
O         19.54992        33.78940        -0.75719
H         20.11118        34.53149        -1.08007
O         35.89708        31.59042         2.31490
H         35.00699        31.66597         2.72533
O         13.30726        41.47576        -2.69230
H         14.17058        41.08812        -2.95039
O         15.25219        15.20931         1.89339
H         16.01913        15.32282         2.50726
O         34.85844        39.81058         2.16304
H         33.98412        39.74316         2.61848
O         37.09091        34.10652         2.21247
H         36.91166        33.22398         2.62290
O         15.89752        20.47831        -1.28958
H         16.82772        20.24703        -1.53254
O         23.95991        43.34899        -2.39517
H         24.43188        43.93509        -3.03455
O         25.18868        14.44155        -2.46972
H         25.73979        15.16309        -2.92627
O         18.09791        40.78616         1.68243
H         17.28445        41.32279         1.79650
O         23.40699        18.33671        -1.81271
H         24.04508        18.28727        -2.56505
O         23.80356        44.89892         0.91825
H         23.24992        44.33467         1.51171
O         23.34393         5.77011        -2.17594
H         23.30951         4.81896        -2.40703
O         11.66199        27.14700         2.85890
H         12.10734        26.45272         3.40145
O         10.52066        40.21367         0.97338
H         11.18467        40.79629         1.40068
O         20.98698        15.63635         2.36371
H         21.16608        16.52258         2.76368
O         28.09123        33.02961         3.18512
H         28.60222        33.77083         3.58868
O         19.99317        29.50827        -0.52885
H         19.19673        29.62585        -1.09704
O         21.86864         7.97263        -2.33787
H         22.75382         8.20119        -2.71126
O         32.13336        39.82860         2.43159
H         31.27488        39.50248         2.78083
O         26.09882        54.95202        -1.75224
H         25.38484        54.56467        -2.30479
O         30.40602        35.89524        -0.82844
H         31.11593        36.32848        -1.34731
O         12.76714        33.32658         2.42615
H         11.93579        32.82739         2.57518
O         32.36035        46.94768        -2.64220
H         31.73371        47.65672        -2.92168
O         36.96358        26.86666        -2.71039
H         36.06930        27.05629        -3.08850
O         15.26111        36.59712         2.49747
H         15.51989        35.83767         3.07408
O         23.56305        11.46529         1.51894
H         23.75303        12.37880         1.84740
O         16.99170        43.50358        -2.90267
H         17.88897        43.20391        -3.16527
O         19.44496        47.14045         0.49970
H         19.42913        46.32547         1.04264
H          5.25029        30.97785        -1.76349
H          5.16638        33.42482        -1.91419
H          7.54959        26.74500        -0.46933
H          6.29125        28.95854        -1.00649
H          6.39856        35.65817        -1.77909
H          7.56635        37.74863        -1.80919
H          9.92604        22.71808        -0.00487
H          8.69279        24.70812         0.10874
H          8.67736        39.98900        -1.26739
H          9.90107        42.28256        -0.70878
H         12.37742        18.33655        -0.11354
H         11.17266        20.47675        -0.20263
H         11.13041        44.38896        -0.83022
H         12.36942        46.52319        -0.97319
H         14.90856        14.04437        -0.41354
H         13.50249        16.20113         0.08670
H         13.64428        48.66498        -0.87616
H         14.92243        50.78103        -0.83222
H         17.36645         9.57228         0.02670
H         16.10544        11.91696        -0.46310
H         16.17974        52.84864        -0.48648
H         17.38861        54.77204         0.30693
H         19.91081         5.39220         0.14443
H         18.64656         7.48662         0.09092
H         18.65116        56.90321         1.00809
H         20.54343        59.20007         0.50917
H         23.34590         2.13205         0.52648
H         21.16331         3.26663         0.28116
H         23.18523        61.36360         4.13322
H         21.05277        60.49047         3.15128
H         25.47701         3.38389         0.41299
H         26.69859         5.49887         0.06713
H         26.58624        58.45980         2.55309
H         25.35906        60.30684         3.54331
H         27.93503         7.66419        -0.34898
H         29.11341         9.83432        -0.36414
H         29.12852        54.75637         0.90541
H         27.84768        56.66428         1.58970
H         30.30400        12.03336        -0.31979
H         31.48452        14.20689        -0.44949
H         31.58472        50.79114         0.31199
H         30.40192        52.72710         0.29816
H         32.65875        16.32443        -0.52283
H         33.91119        18.41041        -0.71750
H         34.30796        46.39442        -0.91768
H         32.63339        48.09641         0.49699
H         35.19204        20.61716        -0.65410
H         36.36865        22.79687        -0.53954
H         36.68295        42.18518        -0.61015
H         35.48587        44.32735        -0.64189
H         37.60392        24.89729        -0.62213
H         39.00837        27.08908        -0.96422
H         39.13809        38.00284         0.07016
H         37.93776        40.08058        -0.29088
H         40.26371        29.11516        -0.57479
H         41.54620        31.21799        -0.33860
H         41.57839        33.67525        -0.06604
H         40.39573        35.80546         0.18901
