         621
 CSIRO Nanostructure Databank - Neutral Graphene Oxide Data Set
C          5.79640        31.66924         0.42387
C          5.80695        33.03475         0.42248
C          8.28144        27.35797         0.32586
C          8.27207        28.75110         0.46010
C          7.03853        29.51429         0.50170
C          8.25267        31.64549         0.81906
C          7.00819        30.89111         0.55168
C          8.28822        33.11280         0.59736
C          7.02956        33.81428         0.47397
C          8.24600        35.95807         0.33805
C          7.02701        35.19825         0.43141
C          8.20654        37.34554         0.25497
C         10.75995        23.11206        -0.24659
C         10.71612        24.53026        -0.23509
C          9.52223        25.23152         0.04593
C         10.71705        27.37742        -0.07820
C          9.49456        26.64505         0.10919
C         10.71278        28.78462         0.09204
C          9.52485        29.44481         0.42035
C         10.81096        31.62413         0.61448
C          9.55168        30.87634         0.75414
C         10.76741        33.08619         0.81741
C          9.48598        33.79796         0.55920
C         10.72003        35.91017         0.16555
C          9.51734        35.23167         0.33199
C         10.67952        37.31771        -0.25023
C          9.37758        38.10396        -0.18017
C         10.63300        40.28927        -0.19405
C          9.44656        39.58698        -0.15279
C         10.67885        41.72367        -0.23646
C         13.19773        18.79451        -0.53712
C         13.16682        20.23741        -0.59971
C         11.97721        20.96372        -0.40140
C         13.16695        23.07936        -0.80579
C         11.96079        22.38011        -0.46909
C         13.10432        24.54755        -0.98874
C         11.91215        25.28058        -0.52054
C         13.18796        27.41018        -0.48862
C         11.92683        26.67492        -0.41912
C         13.22667        28.79012        -0.16866
C         11.94424        29.58512        -0.27694
C         13.24694        31.67890         0.40945
C         11.98043        30.98333         0.30662
C         13.32961        33.05713         0.55046
C         12.06050        33.82086         0.65000
C         13.31576        35.91913         0.24634
C         12.03289        35.16152        -0.03043
C         13.26044        37.36318        -0.11134
C         11.96593        38.08546        -0.30556
C         13.18000        40.34678        -0.29222
C         11.93778        39.56305         0.09298
C         13.14708        41.70728        -0.31501
C         11.88115        42.45169        -0.24385
C         13.07805        44.65323        -0.40067
C         11.90146        43.87910        -0.23610
C         13.13522        46.05153        -0.36239
C         15.66360        14.45805        -0.07648
C         15.25273        15.78480         0.06302
C         14.23322        16.57330        -0.51148
C         15.66658        18.69972        -0.81105
C         14.34894        18.01119        -0.53933
C         15.60997        20.19322        -1.02702
C         14.36632        20.96297        -0.85044
C         15.61481        23.08272        -1.45954
C         14.37009        22.37097        -0.97888
C         15.67595        24.56080        -1.16525
C         14.39874        25.32183        -1.17465
C         15.63533        27.40862        -0.60376
C         14.40636        26.73588        -0.74381
C         15.67793        28.73551        -0.13200
C         14.45650        29.43015         0.06249
C         15.71191        31.52571         0.92533
C         14.43672        30.82333         0.58167
C         15.72891        33.01315         0.94269
C         14.58190        33.79521         0.71751
C         15.73192        36.14093         0.37603
C         14.51809        35.29319         0.54555
C         15.71350        37.45301        -0.06317
C         14.46185        38.23379         0.19925
C         15.74905        40.30703        -0.25540
C         14.45931        39.56868        -0.55561
C         15.72115        41.79111        -0.27762
C         14.39808        42.54616        -0.12483
C         15.59045        44.67346        -1.00394
C         14.31843        43.91664        -0.76589
C         15.63663        46.09237        -0.60258
C         14.37371        46.78899        -0.36872
C         15.59341        48.82451         0.35575
C         14.38144        48.16891        -0.13494
C         15.73887        50.27371         0.56861
C         18.24028        10.50955         1.31111
C         18.23174        11.90361         1.05759
C         17.02538        12.57426         0.67517
C         18.14271        14.74409         0.57617
C         16.93087        13.95252         0.42585
C         18.27282        16.11600         0.24641
C         17.11747        16.93538         0.18300
C         18.24958        18.68463        -1.02536
C         17.02005        18.09898        -0.55487
C         18.18255        20.17313        -1.13812
C         16.88568        20.94830        -0.90670
C         18.12570        23.04026        -1.18877
C         16.90461        22.38712        -1.13997
C         18.18382        24.48708        -0.82261
C         16.86236        25.21234        -1.04427
C         18.19672        27.39390        -0.86088
C         16.88287        26.69676        -0.98181
C         18.25416        28.77722        -0.33702
C         16.99321        29.36092         0.20299
C         18.30089        31.54154         0.64525
C         17.01448        30.76851         0.75782
C         18.23020        33.01658         0.74325
C         17.04719        33.54777         1.18993
C         18.23835        36.11825         0.23273
C         17.04734        35.67633         0.72187
C         18.25247        37.35427        -0.55792
C         16.92318        38.11593        -0.59050
C         18.21357        40.25872        -0.68842
C         17.00665        39.59199        -0.60881
C         18.23971        41.72580        -0.71113
C         16.94011        42.44609        -0.84354
C         18.16635        44.68085        -0.99712
C         16.90027        43.92337        -1.09337
C         18.13864        46.02524        -0.74711
C         16.86867        46.70332        -0.43495
C         18.19719        48.70419         0.48665
C         16.88951        48.01136         0.25157
C         18.21925        50.15855         0.80801
C         16.94781        50.89392         0.89049
C         18.19780        53.00279         1.37769
C         16.99724        52.30455         1.12977
C         18.26348        54.39249         1.56116
C         20.62872         6.43257         2.75709
C         20.64805         7.77076         2.26356
C         19.44806         8.45880         1.99214
C         20.68267        10.54663         1.57235
C         19.43706         9.83210         1.63241
C         20.69209        11.95780         1.35042
C         19.44063        12.64044         1.20017
C         20.72204        14.88105         0.96122
C         19.35778        14.09510         1.06797
C         20.71521        16.04606         0.09458
C         19.51847        16.71648        -0.17629
C         20.79424        18.63395        -1.09829
C         19.49023        18.01901        -0.84202
C         20.97124        19.93278        -1.73329
C         19.18475        20.98460        -1.78784
C         20.60698        23.02245        -1.95336
C         19.33157        22.34261        -1.55710
C         20.58654        24.56539        -2.01588
C         19.41970        25.20211        -1.28404
C         20.74576        27.32197        -0.70577
C         19.46010        26.58414        -0.82095
C         20.73390        28.78545        -0.55353
C         19.47133        29.43746        -0.29447
C         20.70234        31.66089        -0.29494
C         19.52543        30.85435         0.14243
C         20.66586        33.15739        -0.10235
C         19.41513        33.85654         0.36824
C         20.75969        36.04399         0.10463
C         19.49668        35.37279         0.54990
C         20.71092        37.42165        -0.44019
C         19.52542        38.10332        -0.64653
C         20.67969        40.24749        -0.92559
C         19.48798        39.54099        -0.83628
C         20.69654        41.71572        -0.71765
C         19.40295        42.42925        -0.85898
C         20.73557        44.62942        -1.17298
C         19.42379        43.89057        -1.16503
C         20.71968        46.13275        -1.08866
C         19.37629        46.89370        -0.94742
C         20.74154        48.78568         0.21656
C         19.45313        48.01542         0.08142
C         20.66939        50.26885         0.32302
C         19.40862        50.83610         0.87770
C         20.77134        52.95861         1.42091
C         19.45807        52.22401         1.37780
C         20.72892        54.41799         1.62582
C         19.50309        55.10641         1.70513
C         20.67363        57.29605         1.86113
C         19.50267        56.54071         1.82206
C         20.69591        58.71774         1.86043
C         23.02356         3.88800         4.12905
C         21.82777         4.44635         3.62462
C         23.08639         6.32587         2.61036
C         21.80944         5.71683         3.01301
C         23.13450         7.75498         2.28741
C         21.90399         8.45151         2.08428
C         23.14062        10.51745         1.52420
C         21.91050         9.84267         1.73846
C         23.16224        11.91617         1.29450
C         21.94187        12.63250         1.24355
C         23.23764        14.69152         0.60307
C         22.01859        14.14269         1.29448
C         23.24065        15.94574         0.01003
C         21.97428        16.49061        -0.59135
C         23.23244        18.68054        -0.83444
C         21.98627        17.98737        -0.76262
C         23.21268        20.17368        -0.91405
C         21.99245        20.81579        -1.45492
C         23.24651        23.05172        -1.83336
C         21.94739        22.25281        -1.89579
C         23.24745        24.51944        -1.60049
C         21.96878        25.27166        -1.74647
C         23.25608        27.31843        -0.77417
C         21.99451        26.69505        -1.22669
C         23.21814        28.71845        -0.41775
C         21.97760        29.42364        -0.40122
C         23.19445        31.62285         0.09923
C         21.98500        30.90868        -0.38473
C         23.20965        33.12670         0.13614
C         21.96202        33.88697        -0.11570
C         23.25748        35.95938        -0.27590
C         21.99561        35.25353        -0.14295
C         23.26029        37.34047        -0.56337
C         21.97349        38.02475        -0.86585
C         23.25053        40.27017        -1.15216
C         21.94025        39.53809        -1.17118
C         23.27739        41.73522        -0.88447
C         21.99288        42.46259        -0.71755
C         23.20977        44.60092        -0.68739
C         22.01989        43.93935        -0.87099
C         23.26671        46.03315        -0.50578
C         22.02201        46.79825        -0.75547
C         23.30026        48.88850        -0.15005
C         22.02689        48.14190        -0.12461
C         23.26954        50.38444        -0.29983
C         21.94274        51.05647         0.16494
C         23.18455        53.08101         0.89769
C         22.01846        52.38982         0.82788
C         23.30199        54.31008         1.78283
C         21.99345        55.08607         1.92804
C         23.20822        57.36006         1.76350
C         21.97387        56.60366         2.00687
C         23.17231        58.73575         1.77172
C         21.90099        59.43721         1.89449
C         23.12275        61.55837         1.88346
C         21.92240        60.85891         1.93734
C         24.25153         4.50695         4.00944
C         25.58575         6.54260         3.22275
C         24.42796         5.66757         3.14498
C         25.60947         7.79668         2.59824
C         24.37565         8.38861         2.13052
C         25.70931        10.50055         1.53089
C         24.39330         9.74519         1.56174
C         25.66345        11.96521         1.39816
C         24.43925        12.62041         1.18797
C         25.69594        14.67505         0.61212
C         24.46002        14.00402         0.83000
C         25.70278        16.00615         0.11546
C         24.46828        16.62569        -0.23088
C         25.73270        18.63415        -0.98751
C         24.44063        17.99094        -0.67000
C         25.76042        20.12195        -1.25721
C         24.50276        20.90451        -1.06214
C         25.73468        23.08448        -1.10728
C         24.53459        22.32898        -1.52496
C         25.71187        24.46601        -1.07644
C         24.43105        25.18552        -1.23816
C         25.69333        27.23025        -0.34426
C         24.43312        26.59207        -0.87862
C         25.67216        28.73934        -0.34314
C         24.47512        29.41523        -0.21402
C         25.75955        31.65386         0.21780
C         24.47515        30.85311         0.17349
C         25.71945        33.11911        -0.02805
C         24.50968        33.82597         0.00221
C         25.72593        35.94287        -0.33947
C         24.49203        35.24068        -0.20868
C         25.71546        37.36644        -0.46099
C         24.48471        38.03914        -0.62802
C         25.67066        40.25848        -0.31674
C         24.51263        39.49378        -0.91613
C         25.77086        41.67363        -0.88261
C         24.45536        42.39323        -0.75206
C         25.56798        44.40119         0.24407
C         24.54454        43.89980        -0.84911
C         25.59717        45.92442         0.35961
C         24.39449        46.69432        -0.04989
C         25.73087        48.85448         0.23320
C         24.45928        48.16099         0.01544
C         25.69571        50.30967         0.38721
C         24.51033        51.00895         0.27725
C         25.74958        53.16303         0.78417
C         24.46700        52.47003         0.44853
C         25.71035        54.56666         1.25101
C         24.51022        55.18012         1.45551
C         25.72412        57.39897         1.49784
C         24.42817        56.66424         1.22482
C         25.65335        58.80037         1.63843
C         24.41781        59.49045         1.69190
C         24.35483        60.89552         1.76996
C         26.82529         8.56599         2.59985
C         28.08857        10.66020         2.20097
C         26.90999         9.88190         2.13582
C         28.12744        12.00978         1.75605
C         26.89746        12.67089         1.38278
C         28.15609        14.72777         0.85762
C         26.92220        14.02568         0.95910
C         28.17319        16.06347         0.36037
C         26.95863        16.69906        -0.03314
C         28.22054        18.70516        -0.72099
C         26.99467        18.00527        -0.57175
C         28.21565        20.12277        -1.05313
C         27.03389        20.83571        -1.14002
C         28.26971        23.04244        -0.80064
C         26.97791        22.30142        -0.88441
C         28.30468        24.55671        -0.71042
C         26.95583        25.22438        -0.93909
C         28.23339        27.33999        -0.91611
C         26.96406        26.59352        -0.85742
C         28.20055        28.74286        -0.67795
C         26.98104        29.40570        -0.20282
C         28.23266        31.67921        -0.44242
C         27.05193        30.91868         0.02332
C         28.16299        33.06489        -0.58236
C         26.94435        33.80318        -0.32358
C         28.19625        35.93683        -0.59809
C         26.95058        35.21472        -0.41556
C         28.19393        37.37797        -0.51087
C         26.97176        38.09131        -0.45006
C         28.16759        40.23702        -0.26424
C         26.98059        39.51590        -0.41997
C         28.20406        41.66872        -0.23512
C         26.96577        42.40854        -0.28263
C         28.12465        44.57243        -0.18754
C         26.90773        43.76603        -0.03115
C         28.16871        45.97726         0.22173
C         26.89646        46.67518         0.47295
C         28.20012        48.79150         0.61271
C         26.92559        48.15225         0.34802
C         28.11781        50.18964         1.08230
C         26.92087        50.99454         0.78567
C         28.20317        53.09668         1.21587
C         26.96730        52.36465         0.97599
C         28.16385        54.54172         1.26714
C         26.98117        55.28227         1.28381
C         26.93713        56.70173         1.45349
C         29.33511        12.74705         1.70595
C         30.59487        14.82647         1.17247
C         29.37642        14.08252         1.24956
C         30.63675        16.12788         0.67218
C         29.41076        16.76192         0.21701
C         30.74452        18.69721        -0.59011
C         29.43004        18.05567        -0.33764
C         30.79511        20.09222        -1.12981
C         29.50119        20.83895        -1.29912
C         30.77274        23.11733        -1.17949
C         29.50841        22.33857        -1.26677
C         30.74296        24.47276        -1.26289
C         29.42594        25.19636        -1.53695
C         30.70145        27.49171        -1.43194
C         29.44202        26.68120        -1.21734
C         30.72856        28.72070        -0.54011
C         29.45119        29.48087        -0.38890
C         30.66400        31.65005        -0.75709
C         29.47963        30.96759        -0.50794
C         30.68552        33.05334        -1.18447
C         29.34090        33.81167        -1.06866
C         30.62631        36.02531        -1.13272
C         29.37781        35.26845        -0.88447
C         30.66491        37.43416        -0.68330
C         29.44263        38.06841        -0.43463
C         30.71952        40.22164         0.11789
C         29.40953        39.48271        -0.03163
C         30.69280        41.70216         0.03915
C         29.44913        42.34755        -0.10225
C         30.70365        44.55115        -0.01234
C         29.47002        43.79985        -0.26524
C         30.56121        45.94203        -0.15816
C         29.36966        46.68159         0.16747
C         30.66693        48.79122         0.96233
C         29.41888        48.10355         0.56090
C         30.65536        50.16067         1.21016
C         29.43122        50.94449         1.35491
C         29.40455        52.40461         1.27497
C         31.86204        16.88040         0.65154
C         33.13215        18.93777         0.16581
C         31.94480        18.14789         0.09409
C         33.22807        20.25356        -0.30087
C         32.07638        20.88121        -1.00330
C         33.25694        23.15078        -0.69431
C         32.06166        22.38284        -1.10985
C         33.26234        24.52590        -0.85196
C         32.02894        25.21234        -1.31652
C         33.27803        27.42243        -1.00043
C         32.01973        26.70793        -1.36537
C         33.26585        28.79973        -0.82015
C         32.00329        29.49227        -0.52090
C         33.20422        31.65347        -1.12798
C         31.96437        30.98835        -0.58183
C         33.15637        33.15272        -0.96174
C         31.97440        33.81298        -1.12454
C         33.21492        36.07128        -1.11098
C         31.95590        35.29316        -1.30567
C         33.16995        37.42157        -0.83185
C         31.92024        38.13033        -0.57740
C         33.18211        40.21907        -0.03872
C         31.95733        39.49542        -0.21824
C         33.11796        41.61862         0.45693
C         31.90366        42.43267         0.19502
C         33.18779        44.54879         0.60691
C         31.94039        43.85648         0.22571
C         33.22759        45.92957         1.05462
C         32.32954        46.92343         0.65028
C         31.92060        48.11586         1.25551
C         34.38942        21.03992        -0.07798
C         35.62422        23.19377        -0.04918
C         34.44061        22.43400        -0.28803
C         35.66917        24.57621        -0.23917
C         34.47229        25.28413        -0.66110
C         35.80315        27.42666        -0.78827
C         34.49099        26.67503        -0.82021
C         35.65589        28.85273        -0.32133
C         34.47344        29.55852        -0.53926
C         35.59801        31.75420        -0.33178
C         34.44140        30.99383        -0.56342
C         35.68046        33.14357        -0.62289
C         34.46592        33.84259        -1.11804
C         35.87108        36.03730        -1.26530
C         34.49576        35.33482        -1.32702
C         35.75915        37.52323        -0.91200
C         34.42866        38.21881        -0.77700
C         35.66218        40.28738         0.00321
C         34.40749        39.58504        -0.20218
C         35.66565        41.64712         0.30972
C         34.43779        42.36603         0.63133
C         34.37417        43.82799         0.68495
C         36.85903        25.32739         0.06083
C         38.09583        27.44985         0.27672
C         36.93329        26.70167        -0.08930
C         38.09480        28.84590         0.37174
C         36.79289        29.53699         0.26315
C         38.03690        31.78496         0.33870
C         36.75733        31.07934         0.27200
C         38.05141        33.16988         0.13623
C         36.86626        33.87920        -0.31946
C         38.09719        36.00366        -0.09849
C         36.91909        35.28726        -0.46422
C         38.10809        37.42382        -0.08136
C         36.95590        38.19320        -0.34136
C         36.89648        39.55812        -0.05620
C         39.23748        29.63391         0.66808
C         40.43291        31.79695         0.87217
C         39.22592        31.04271         0.65419
C         40.44629        33.15963         0.76371
C         39.26818        33.89870         0.38675
C         39.26319        35.28783         0.30742
O         24.12846        39.87156        -2.26130
O         25.12980        31.17078         1.43922
O         15.62107        22.99932        -3.01278
O         32.19939        25.92859        -2.61001
O         17.08827        34.79445         1.79591
O         11.46868        33.69542         1.97486
O         15.61823        19.27400        -2.17075
O         29.39364        21.63061        -2.53973
O         30.09727        28.74175         0.75440
O         28.79241        44.29076        -1.46496
O         21.54058        46.74469        -2.13844
O         18.93097        47.79522         1.41234
O         17.11050        29.63879         1.65503
O         32.14810        30.32019         0.69334
O         28.59035        50.38717         2.44688
O         22.05281        26.42589        -2.66807
O         30.01236        39.70590         1.30316
O         20.19145        26.64878         0.50787
O         16.03938        16.54339         0.96361
O         33.68507        41.77141         1.78774
O         13.54039        25.03528        -2.32937
O         26.12560        46.27883         1.69096
O         21.23608        22.47843        -3.14225
O         27.67666        22.52243         0.43299
O         25.72958        19.17410        -2.36680
O         16.13840        48.02055         1.49133
O         30.95126        18.95908        -2.03478
O         21.99026        55.77478         3.23840
O         22.97094        32.32748         1.36257
O         35.18508        38.23748        -2.05819
O         19.32632        31.03230         1.58820
O          9.89931        37.55848        -1.47194
O         21.34827        42.08475         0.58193
O         17.77381        20.63135         0.21356
O         14.89944        30.93183         1.98461
O         20.96462        50.99367        -0.93803
O         31.66328        46.66474        -0.57260
O         36.44749        30.30333         1.46914
O         20.36476        35.93855         1.55863
O         14.71448        44.24707        -2.11650
O          8.91088        31.19540         2.04960
O         23.88700        20.79279         0.26295
O         29.86512        33.33647        -2.35111
O         21.53652        48.15203         1.27817
O         15.94810        41.05754         0.98279
O         19.68603        33.66353        -1.08202
O         23.91555         5.49322         1.78095
O         17.45675        37.41018        -1.77288
O         21.30443        31.39449        -1.60058
O         20.12949        44.15961        -2.43409
O         21.87978        38.55060        -2.23229
O         25.20830         9.82931         0.32585
O         20.25650        52.26625         2.62586
O         32.39111        21.53858        -2.27368
O         24.15321        22.59563        -2.90843
O         25.21638        53.17032        -0.61416
O         16.82635        42.96343        -2.20485
O         34.49876        34.42469        -2.47882
O         17.53976        27.29217        -2.17869
O         25.03897        44.18400        -2.11542
O         19.90520        14.93078         2.16078
O         12.72438        37.64492        -1.47285
O         31.20252        35.76766        -2.46494
O         20.00610        20.29819        -2.68156
O         27.30146        30.01372         1.12416
O         25.70338        26.89157         1.09821
H         26.37865        27.45717         1.53347
O         21.93491        15.93105        -1.95568
H         22.69447        16.30162        -2.45407
O         25.36975        40.35182         1.10081
H         25.98846        40.99295         1.51157
O         36.23939        27.52617        -2.19758
H         35.46466        27.80901        -2.72950
O         25.05490        43.88531         1.49047
H         25.32557        44.51481         2.19804
O         19.13986        47.59075        -2.19811
H         19.54383        47.06825        -2.92531
O         30.64020        28.05418        -2.77840
H         30.98510        27.36574        -3.39228
O         11.80476        29.83367        -1.72611
H         11.80593        28.96383        -2.18067
O         36.42141        36.01720        -2.60643
H         35.89921        36.66088        -3.13666
O         23.37135        50.64539        -1.73212
H         22.45377        50.65711        -2.09215
O         28.67060        24.86560         0.66045
H         28.09443        24.31489         1.23885
O         14.31175        42.91908         1.28909
H         14.69624        42.16790         1.80287
O         12.07135        34.86574        -1.46194
H         12.11600        35.73143        -1.93385
O         14.57985        39.36463        -1.97766
H         13.83900        38.78476        -2.27782
O         26.10036        41.63794        -2.28453
H         25.85585        42.54104        -2.62913
O         11.96218        39.48278         1.55980
H         12.09493        40.38915         1.91095
O         24.22883        56.75834        -0.24573
H         24.95998        56.26020        -0.67302
O         23.59578        53.74590         3.09523
H         23.20592        54.35818         3.76235
O         18.31871        24.45922         0.65833
H         18.94444        25.16346         0.94762
O         33.19403        31.41504        -2.56808
H         33.72219        32.12020        -3.00205
O         22.30787        14.41998         2.70787
H         21.43331        14.54371         3.14967
O         20.22754        24.84716        -3.39741
H         20.63581        25.71341        -3.63794
O         14.30807        22.68359        -3.48941
H         13.84838        23.56700        -3.46105
O         29.12377        25.03116        -2.94049
H         29.94114        25.20257        -3.45531
O         14.46256        38.56632         1.60828
H         14.51153        37.73811         2.13011
H          4.84142        31.13046         0.33248
H          4.85679        33.58294         0.33815
H          7.33597        26.79772         0.37585
H          6.09394        28.96133         0.38225
H          6.06985        35.73948         0.38793
H          7.25684        37.87533         0.42435
H          9.83596        22.55431        -0.03368
H          8.59616        24.66563         0.22554
H          8.49373        40.13910        -0.18670
H          9.72419        42.27019        -0.28948
H         12.23160        18.28530        -0.39708
H         11.04123        20.42800        -0.18565
H         10.94146        44.40483        -0.10935
H         12.21075        46.61706        -0.16548
H         15.00034        13.73810        -0.57894
H         13.31456        16.11210        -0.90508
H         13.43674        48.73307        -0.15524
H         14.83404        50.89617         0.49171
H         17.29608         9.94764         1.26397
H         16.12091        11.95892         0.55698
H         16.05132        52.86716         1.11434
H         17.32753        54.97099         1.57765
H         19.65728         5.95956         2.96491
H         18.49105         7.92455         2.08734
H         18.53269        57.06055         1.81638
H         19.74229        59.26667         1.83894
H         22.95084         2.96965         4.72961
H         20.87290         3.94685         3.84144
H         23.10906        62.65655         1.92816
H         20.97133        61.40533         2.01412
H         25.11145         4.14731         4.59280
H         26.46011         6.21289         3.80398
H         26.58729        59.37849         1.71773
H         25.28591        61.47945         1.73650
H         27.72575         8.09494         3.02274
H         29.01077        10.19953         2.58651
H         29.12367        55.07299         1.36127
H         27.88170        57.25681         1.56450
H         30.27280        12.25473         2.00467
H         31.52780        14.35035         1.51004
H         31.61490        50.67182         1.38279
H         30.35875        52.95242         1.26448
H         32.75549        16.43615         1.11638
H         34.00328        18.50323         0.68057
H         33.97117        46.17489         1.82792
H         32.55449        48.56545         2.03482
H         35.28090        20.54117         0.33255
H         36.53257        22.66801         0.28172
H         36.61782        42.19805         0.31513
H         35.31332        44.37345         0.86370
H         37.71739        24.78493         0.48724
H         39.01569        26.89812         0.52727
H         39.01634        37.93704         0.26889
H         37.81362        40.07094         0.27059
H         40.19619        29.12221         0.84408
H         41.35225        31.25428         1.13634
H         41.37471        33.71906         0.94998
H         40.17532        35.85309         0.54989
