         252
 CSIRO Nanostructure Databank - Neutral Graphene Oxide Data Set
C         30.38108        31.73762         0.43260
C         30.40207        32.99678         0.45831
C         30.48968        36.05089         0.66450
C         30.28102        37.19684         1.14592
C         30.44281        41.13552         0.98190
C         30.47482        42.33878         0.55685
C         32.78903        28.97725        -0.07010
C         31.65791        29.47425         0.13063
C         32.70943        31.62652        -0.06836
C         31.47549        30.88516         0.17637
C         32.58301        33.03438        -0.25784
C         31.49694        33.84887         0.14832
C         32.81273        36.04134         0.62563
C         31.60426        35.26971         0.34180
C         32.68487        37.38759         1.16484
C         31.44261        37.93600         1.52156
C         32.68485        40.32478         0.52627
C         31.47295        40.19727         1.23997
C         32.88559        41.33351        -0.48330
C         31.15449        42.84486        -0.53646
C         33.12049        44.15169        -1.16815
C         31.94666        43.99219        -0.79917
C         35.56929        27.41225         0.02585
C         35.27831        28.80665         0.04121
C         34.09627        29.53339        -0.04120
C         35.22540        31.75692         0.28081
C         34.02837        31.00494        -0.02287
C         35.29768        33.14592         0.56528
C         34.33730        34.11383         0.13251
C         35.10706        35.89596         1.70062
C         34.10812        35.39131         0.66056
C         35.19153        37.45560         1.67776
C         33.90517        38.20978         1.49117
C         35.22421        40.31522         0.70663
C         33.91063        39.76878         1.25764
C         35.28585        41.48974        -0.02450
C         34.10880        41.98368        -0.69430
C         35.55791        43.73642        -1.83441
C         34.18274        43.17158        -1.66427
C         35.85976        44.77348        -2.81640
C         37.97967        27.28769         0.25821
C         36.62470        26.74817         0.01336
C         37.87373        28.79824         0.30609
C         36.53653        29.50739         0.42296
C         37.79250        31.73116         0.56948
C         36.48853        30.99888         0.56893
C         37.79646        33.05342         0.85865
C         36.51487        33.72764         1.19769
C         37.72709        35.94707         1.24465
C         36.48326        35.17220         1.61957
C         37.71863        37.43143         1.08049
C         36.49993        38.21122         1.49812
C         37.76461        40.33433         0.75707
C         36.48504        39.68549         1.14597
C         37.82122        41.59776         0.27467
C         36.54070        42.35825         0.00334
C         38.05856        43.77912        -1.58484
C         36.66979        43.28669        -1.17966
C         38.06783        45.27175        -1.98408
C         36.86610        45.52576        -2.67593
C         40.24235        24.53292        -0.99682
C         39.25596        25.24933        -0.69592
C         40.24516        27.54335        -0.93119
C         39.31215        26.62011        -0.07821
C         40.28332        28.96606        -0.54808
C         38.96943        29.67148        -0.27013
C         40.29931        31.77098         0.23191
C         39.09728        30.93747         0.61202
C         40.30477        33.13303         0.54918
C         39.07761        33.76431         1.07387
C         40.29743        36.01445         0.98373
C         39.06257        35.25609         1.28729
C         40.31212        37.46079         1.09525
C         39.02720        38.19577         0.78146
C         40.27031        40.39305         1.38235
C         38.99077        39.63774         1.23526
C         40.30809        41.75557         0.78909
C         39.10951        42.29297         0.14437
C         40.48454        44.12388        -0.89643
C         39.18125        43.41828        -0.64500
C         40.29527        45.64314        -0.94420
C         39.14287        46.11357        -1.69722
C         40.27721        48.25126        -2.52203
C         39.38415        47.40272        -2.24393
C         42.74367        24.70728        -1.52783
C         41.38033        24.74521        -1.80164
C         42.51260        27.85792        -2.06968
C         41.23940        27.08236        -1.76929
C         42.69040        29.01448        -1.05046
C         41.40223        29.73820        -0.74610
C         42.65693        31.85992        -0.40910
C         41.47080        31.14404        -0.34405
C         42.77142        33.15787         0.35282
C         41.48212        33.92170         0.45236
C         42.72886        36.15798         0.47106
C         41.47692        35.31007         0.71338
C         42.77203        37.36926         1.44370
C         41.49177        38.15066         1.24271
C         42.83312        40.28185         1.13642
C         41.57208        39.60650         1.63662
C         42.78896        41.76521         1.11573
C         41.52183        42.43209         0.69307
C         42.74059        44.50596         0.07630
C         41.58874        43.71130         0.04936
C         42.69734        45.86553        -0.36711
C         41.39020        46.43274        -0.59749
C         42.82224        48.45075        -2.01284
C         41.43649        48.39279        -1.72554
C         43.57390        25.64741        -1.80291
C         45.06466        27.67167        -1.65169
C         43.83732        26.99666        -1.85862
C         45.13092        29.18487        -1.75117
C         43.84838        29.89867        -1.47987
C         45.15729        31.67911        -0.11533
C         43.93194        31.36443        -1.06104
C         45.26281        33.19351         0.05623
C         43.98586        34.00706        -0.09642
C         45.28477        35.97154         1.03382
C         43.99473        35.26829         0.74531
C         45.25781        37.45251         1.17776
C         44.06930        38.13893         1.23529
C         45.30411        40.28693         0.85718
C         44.03817        39.59915         1.10739
C         45.25688        41.71740         0.37438
C         44.07529        42.49587         0.93438
C         45.29705        44.64329         0.20615
C         44.01392        43.95734         0.58417
C         45.17700        45.94891        -0.52288
C         43.93074        46.55659        -0.70386
C         43.68170        47.77862        -1.38684
C         47.41858        27.40029        -0.72811
C         46.29839        27.15574        -1.27971
C         48.14929        28.58998        -0.87963
C         46.38422        29.95130        -1.42167
C         47.72266        31.55268         0.07243
C         46.44837        31.05465        -0.63528
C         47.76507        33.10260         0.06455
C         46.46698        33.83797         0.35276
C         47.76581        35.93023         0.99526
C         46.50270        35.22778         0.69293
C         47.80029        37.41950         0.96306
C         46.56592        38.18706         1.41324
C         47.76946        40.34500         0.77840
C         46.51963        39.63258         0.93440
C         47.81102        41.72742         0.50650
C         46.57621        42.47648         0.43067
C         47.81626        44.51858        -0.14470
C         46.56646        43.84318         0.17582
C         47.57316        45.84433        -0.62679
C         46.47636        46.39884        -0.86013
C         50.19689        28.89447         0.58241
C         49.07021        29.29940        -0.08784
C         50.37912        31.56326         0.08318
C         49.08576        30.84682        -0.24789
C         50.39434        33.08044         0.25841
C         49.06727        33.80756         0.29716
C         50.31416        35.96880         0.89413
C         49.06053        35.18210         0.92536
C         50.26117        37.35137         0.67847
C         48.97702        38.07682         0.74331
C         50.32042        40.30721         0.57731
C         49.02482        39.57092         0.86945
C         50.30723        41.77507         0.37317
C         49.08204        42.42965         0.30792
C         50.32862        44.33886        -0.32975
C         49.01899        43.84604        -0.06409
C         51.29632        29.44210         0.95080
C         52.63726        31.64399         0.96083
C         51.57549        30.76161         0.65631
C         52.72205        32.88093         1.04143
C         51.65129        33.83163         0.66849
C         52.76431        36.08956         0.97781
C         51.57812        35.19667         1.31471
C         52.59230        37.26513         0.59724
C         51.46909        38.09703         0.43359
C         52.58380        40.32840        -0.18053
C         51.37804        39.45510        -0.16680
C         52.65621        41.55945        -0.24985
C         51.69921        42.53206         0.38011
C         51.47011        43.85408        -0.33223
O         31.30641        39.16964         2.14880
O         31.77730        41.73043        -1.28249
O         38.11455        28.01646         1.51333
O         49.98746        39.93094         1.93466
O         34.44116        37.95004         2.82793
O         42.71861        36.61469        -0.80769
O         44.47351        35.18680         2.05522
O         44.31992        29.71074        -2.84920
O         47.59269        29.41455        -1.89623
O         36.40166        30.12275         1.76253
O         36.55040        34.13332         2.62367
O         37.43010        36.55325        -0.07040
O         39.21562        34.34420         2.41847
O         39.37553        40.12413         2.54904
O         41.08625        25.95746        -2.59189
O         43.58295        42.27252         2.27373
O         44.72140        44.77902         1.56132
O         49.97626        31.24696        -1.30504
O         41.22621        47.84575        -0.43001
O         48.44561        33.75969        -1.03919
O         48.37485        35.29189         2.21968
O         51.30042        33.74819        -0.70896
O         33.57764        33.70610        -0.98183
O         36.64458        39.19958         2.54573
O         40.06235        26.47941         1.13571
H         39.59827        26.98425         1.84516
O         33.73826        42.74481        -2.94580
H         32.83572        42.36312        -2.83566
O         44.92862        31.04811         1.17072
H         44.25424        31.59193         1.66529
O         42.40162        28.32078        -3.41051
H         42.05676        27.57949        -3.95299
O         34.51364        35.51716         2.94832
H         35.12425        35.74553         3.67942
O         50.87598        39.31680        -1.50969
H         51.53053        38.81369        -2.03845
O         41.77890        39.54771         3.09041
H         40.88987        39.67944         3.50353
O         44.93534        41.64825        -1.05952
H         45.57228        41.04099        -1.49245
O         43.07171        32.81343         1.76406
H         42.23373        32.52752         2.19008
O         51.51290        34.97947         2.71484
H         51.37089        35.83441         3.17222
O         42.74856        36.90169         2.80631
H         42.54869        37.68779         3.36838
O         38.44298        30.08859        -1.56132
H         39.16327        30.52434        -2.06451
O         43.11499        28.41644         0.20423
H         42.34936        27.95813         0.61451
O         44.16315        32.10538        -2.28187
H         44.33954        31.44709        -3.00234
O         38.37121        43.06547        -2.83299
H         37.68457        43.31914        -3.49072
O         40.96573        43.72672        -2.22686
H         40.19130        43.39071        -2.74258
O         33.83979        40.37152         2.57612
H         34.39238        39.81022         3.17391
O         52.04654        42.76094         1.71284
H         52.95052        43.13292         1.75877
O         36.34714        43.24671         1.14975
H         36.22531        42.69026         1.94890
O         39.05522        38.38459        -0.66315
H         38.87311        37.51212        -1.08088
O         39.28590        30.52606         1.98596
H         38.40814        30.25099         2.34393
O         47.57228        31.19319         1.46958
H         46.60270        31.11215         1.67880
O         43.83966        34.50900        -1.42391
H         43.81872        33.76212        -2.06707
O         46.71479        38.24566         2.86707
H         45.88714        38.61011         3.24657
