         661
 CSIRO Nanostructure Databank - Neutral Graphene Oxide Data Set
C          5.78066        31.70417         0.65954
C          5.72886        33.07092         0.73626
C          8.40361        27.48999         0.65145
C          8.33189        28.87224         0.58297
C          7.09600        29.59514         0.59458
C          8.23357        31.76743         0.86609
C          7.03443        30.98980         0.66957
C          8.16245        33.12513         1.08951
C          6.92870        33.84953         0.90584
C          8.23220        35.94610         0.64999
C          6.98530        35.23762         0.75570
C          8.29617        37.27726         0.27181
C         10.83992        23.18674         0.96640
C         10.84280        24.60029         0.93907
C          9.64003        25.35084         0.80286
C         10.89976        27.44718         0.80729
C          9.64485        26.75094         0.73204
C         10.89889        28.91266         0.56549
C          9.59203        29.64129         0.42238
C         10.64309        31.68118         1.57428
C          9.59056        31.16334         0.58628
C         10.56692        33.13269         1.88267
C          9.29709        33.93899         1.67524
C         10.70694        35.80838         0.75055
C          9.48616        35.24277         0.94934
C         10.79519        37.04815        -0.10594
C          9.55155        37.90742        -0.05509
C         10.87616        39.81878        -0.99062
C          9.62014        39.22289        -0.41205
C         10.98066        41.31969        -0.83618
C         13.22906        18.80194         1.36206
C         13.24972        20.31183         1.24764
C         12.06501        21.02028         1.10692
C         13.28005        23.15518         1.22385
C         12.03686        22.45083         1.09864
C         13.29861        24.58195         1.21868
C         12.09137        25.30593         1.06603
C         13.35886        27.43902         1.19474
C         12.09835        26.74276         1.00217
C         13.39289        28.92406         1.12650
C         12.12342        29.70416         0.94111
C         13.07805        31.65656         2.53044
C         12.02894        31.08900         1.51377
C         13.12126        33.20745         2.43514
C         11.85210        33.90337         2.03348
C         13.09420        36.05436         1.54769
C         12.00147        35.07680         1.06020
C         13.33881        37.15033         0.46818
C         12.06036        37.85410         0.04210
C         13.37529        39.86723        -0.50174
C         12.11625        39.12077        -0.45552
C         13.39238        41.10686        -1.38914
C         12.17435        41.97869        -1.15283
C         13.45936        43.96132        -2.09562
C         12.26601        43.35236        -1.40130
C         13.53081        45.45966        -1.93687
C         15.78336        14.72828         0.06861
C         15.78841        16.08499         0.53531
C         14.57470        16.78937         0.72452
C         15.78798        18.79023         1.39451
C         14.56661        18.12627         1.12122
C         15.74150        20.25159         1.67585
C         14.48675        21.00964         1.36909
C         15.76356        23.15743         1.27335
C         14.48901        22.40800         1.34917
C         15.74697        24.60748         1.50993
C         14.54708        25.29726         1.44020
C         15.76546        27.43362         2.01283
C         14.50523        26.74959         1.51112
C         15.81928        28.92166         1.87230
C         14.55349        29.66519         1.67708
C         15.69439        31.81757         2.00522
C         14.49822        30.97838         2.43749
C         15.68946        33.20057         2.01538
C         14.46980        33.97020         2.45711
C         15.61590        36.05236         1.75295
C         14.42872        35.36324         1.84138
C         15.60293        37.53974         1.59505
C         14.38320        38.14096         0.95296
C         15.69816        40.20396         0.35066
C         14.45288        39.42269         0.21115
C         15.90474        41.32444        -0.60355
C         14.71263        41.86564        -1.34197
C         15.93841        43.98471        -1.65968
C         14.75240        43.29578        -1.67415
C         15.97419        45.33500        -2.34774
C         14.71791        46.13392        -2.06087
C         15.99097        48.24859        -2.36530
C         14.80261        47.56316        -2.09171
C         16.01134        49.66901        -2.39521
C         18.09209        10.79520        -1.82829
C         18.07528        12.11009        -1.35641
C         16.92294        12.72474        -0.82015
C         18.22689        14.75245        -0.24690
C         16.94659        14.05578        -0.33134
C         18.26901        15.98222         0.59674
C         17.01416        16.74575         0.82834
C         18.31665        18.75618         1.61877
C         17.02083        18.08478         1.28077
C         18.36198        20.26406         1.75121
C         17.04556        20.99860         1.75416
C         18.34715        23.17494         1.47256
C         17.06572        22.43159         1.34451
C         18.31379        24.57179         1.43045
C         17.05193        25.28871         1.87903
C         18.25548        27.50885         1.46223
C         16.97040        26.73488         1.37382
C         18.18033        28.98370         1.14833
C         16.97179        29.64350         1.78598
C         18.15082        31.79239         1.99020
C         16.93894        31.10302         1.88486
C         18.15390        33.21806         1.90954
C         16.91460        33.93162         1.86914
C         18.13323        36.06027         1.61845
C         16.91116        35.36349         1.78993
C         18.16546        37.51296         1.50714
C         16.91214        38.31459         1.79959
C         18.20120        40.31495         0.77563
C         16.90014        39.67371         1.07980
C         18.24926        41.60511         0.17066
C         17.08867        42.17954        -0.42759
C         18.38393        44.13015        -1.14221
C         17.14496        43.40979        -1.09581
C         18.40481        45.45818        -1.72031
C         17.25430        46.10430        -2.12689
C         18.44657        48.21645        -2.63043
C         17.26647        47.51985        -2.44764
C         18.38206        49.64048        -3.17011
C         17.18076        50.40444        -2.66393
C         18.39725        52.58057        -2.78626
C         17.20012        51.79968        -2.66187
C         18.34049        53.96982        -2.83532
C         20.47166         6.75198        -3.37092
C         20.48610         8.08960        -2.90240
C         19.28482         8.78253        -2.61311
C         20.54627        10.84597        -2.24724
C         19.29514        10.14576        -2.25675
C         20.55228        12.31276        -2.09558
C         19.28030        12.95079        -1.55791
C         20.64312        14.98026        -0.85689
C         19.35681        14.22937        -0.82199
C         20.73351        16.24131        -0.06776
C         19.57952        16.66824         0.78152
C         20.87467        18.88275         1.09031
C         19.62591        18.07256         1.30931
C         20.80930        20.36378         1.11928
C         19.60510        21.01740         1.39985
C         20.77858        23.18900         1.19200
C         19.56855        22.45353         1.35629
C         20.72341        24.60946         1.11865
C         19.51407        25.30473         1.24560
C         20.70362        27.54349         1.31130
C         19.45665        26.79364         0.92783
C         20.70460        28.87751         1.60094
C         19.51109        29.78151         1.33388
C         20.68794        31.76934         2.32043
C         19.38754        30.95700         2.33093
C         20.66784        33.23893         2.02854
C         19.37572        33.94642         1.82417
C         20.65538        36.03738         1.51122
C         19.37862        35.33130         1.60775
C         20.65001        37.48976         1.12628
C         19.34413        38.20538         1.36154
C         20.62282        40.34711         1.02670
C         19.38043        39.64501         1.11806
C         20.68198        41.61925         0.46920
C         19.50267        42.26273        -0.00078
C         20.81900        44.29274        -0.58812
C         19.55822        43.54939        -0.62901
C         20.87776        45.62214        -1.15122
C         19.71648        46.10174        -1.90636
C         20.97349        48.29519        -2.27648
C         19.74299        47.52009        -2.50026
C         20.99403        49.69743        -2.72477
C         19.70531        50.41833        -3.07445
C         20.86886        52.60387        -2.82496
C         19.68660        51.89753        -2.86686
C         20.88180        54.05426        -2.54035
C         19.52759        54.79297        -2.61210
C         20.78325        56.96252        -2.81866
C         19.58208        56.22364        -2.87111
C         20.73449        58.36818        -2.80489
C         22.85084         4.09229        -4.51245
C         21.65593         4.74376        -4.20391
C         22.92685         6.71912        -3.48001
C         21.66719         6.06844        -3.68754
C         22.96929         8.03974        -2.94432
C         21.74040         8.75216        -2.69609
C         23.02361        10.79355        -2.07467
C         21.76252        10.13340        -2.35002
C         23.08594        12.15303        -1.82380
C         21.89790        13.05299        -2.10213
C         23.12323        14.86566        -0.92462
C         21.91719        14.29912        -1.22176
C         23.30242        16.11295        -0.08501
C         22.04298        16.90181         0.14222
C         23.23077        19.04271         0.21548
C         22.06056        18.23739         0.45612
C         23.23819        20.41539         0.47340
C         22.02119        21.09753         0.88482
C         23.26691        23.24348         0.91908
C         22.02131        22.50111         0.99484
C         23.27557        24.63566         1.03217
C         21.98685        25.34849         0.92734
C         23.23410        27.47667         1.59176
C         21.97637        26.82802         1.07924
C         23.15832        28.96460         1.41453
C         21.97094        29.59620         1.67676
C         23.23768        31.79633         1.86957
C         21.98164        31.02125         2.08657
C         23.17763        33.26377         1.84093
C         21.90381        33.90858         1.42582
C         23.13239        36.14350         1.77994
C         21.87657        35.40551         1.60974
C         23.11160        37.52530         1.83516
C         21.82550        38.23371         1.72284
C         23.12771        40.45825         1.57529
C         21.83632        39.72490         1.60605
C         23.14158        41.72863         1.04297
C         22.01947        42.23034         0.16168
C         23.15511        44.56548         0.28580
C         21.94951        43.72174        -0.03307
C         23.24821        45.82790        -0.53877
C         22.07469        46.37210        -1.13800
C         23.32766        48.47883        -1.57852
C         22.10007        47.71706        -1.70242
C         23.34220        49.88498        -1.98125
C         22.19849        50.49284        -2.44837
C         23.43293        52.73422        -2.60206
C         22.18247        51.91187        -2.85574
C         23.36687        54.20711        -2.51349
C         22.12676        54.85739        -2.67104
C         23.29307        56.99735        -2.63445
C         22.07544        56.27009        -2.72343
C         23.31328        58.44506        -2.85846
C         21.92653        59.19214        -2.94006
C         23.12622        61.26681        -2.37060
C         21.94327        60.59852        -2.55084
C         24.08110         4.71681        -4.31537
C         25.38192         6.69141        -3.57442
C         24.14724         6.03807        -3.78888
C         25.43605         7.99061        -3.01359
C         24.21116         8.64875        -2.67903
C         25.54562        10.65169        -1.98589
C         24.24236         9.91632        -1.87150
C         25.56903        12.02273        -1.49301
C         24.32493        12.80141        -1.50983
C         25.60699        14.91314        -1.28770
C         24.37620        14.17758        -1.24198
C         25.55831        16.35321        -1.14906
C         24.43320        16.96195        -0.63072
C         25.62547        19.24892        -0.72251
C         24.32666        18.41965        -0.54154
C         25.66714        20.56226        -0.08672
C         24.46842        21.17304         0.34106
C         25.73730        23.26288         0.68063
C         24.50041        22.55304         0.68458
C         25.74000        24.69591         0.85882
C         24.50344        25.37860         1.02206
C         25.68471        27.52477         0.98283
C         24.49915        26.80378         1.12410
C         25.64435        28.99920         0.78109
C         24.34290        29.70497         0.94627
C         25.61282        31.93532         0.83665
C         24.24419        31.21374         0.88340
C         25.63304        33.39865         1.15581
C         24.47807        33.95863         2.01280
C         25.58089        36.13143         2.21238
C         24.40439        35.46274         1.95889
C         25.56786        37.56282         2.56581
C         24.27499        38.30960         2.29169
C         25.59247        40.33639         1.69114
C         24.35786        39.76565         1.94129
C         25.67349        41.77005         1.37506
C         24.37509        42.50825         1.07675
C         25.69671        44.60054         0.53901
C         24.46372        43.74202         0.19291
C         25.72879        45.87852        -0.25258
C         24.48815        46.50565        -0.61406
C         25.73828        48.62224        -1.06623
C         24.47506        47.86082        -1.09861
C         25.58848        50.09131        -0.99923
C         24.51926        50.69166        -1.70939
C         25.70061        52.85255        -1.56335
C         24.55825        52.07800        -1.92732
C         25.76015        54.25388        -1.82529
C         24.55000        54.93535        -2.24994
C         25.72026        57.11956        -2.06486
C         24.51540        56.35301        -2.31296
C         25.67558        58.49446        -2.08364
C         24.47919        59.21837        -2.41958
C         24.38585        60.59963        -2.32580
C         26.67873         8.66064        -2.82417
C         27.98145        10.74186        -2.41905
C         26.73572        10.00837        -2.36760
C         28.06617        12.09467        -2.12776
C         26.89322        12.79105        -1.56362
C         28.02173        14.95385        -1.90471
C         26.83563        14.26025        -1.61273
C         28.02774        16.42837        -1.88828
C         26.75505        17.15820        -1.51781
C         28.08765        19.17670        -0.80142
C         26.87342        18.53262        -0.97443
C         28.13506        20.54934        -0.37836
C         26.92006        21.22643         0.02370
C         28.26508        23.25046         0.72580
C         26.94894        22.57151         0.45001
C         28.20969        24.75016         0.55128
C         26.95145        25.43734         0.73963
C         28.11628        27.63886         0.58610
C         26.91737        26.85429         0.76316
C         28.11633        29.01751         0.70635
C         26.90058        29.78625         0.81804
C         28.15281        31.90788         1.10121
C         26.89444        31.17544         0.87441
C         28.17219        33.30986         1.45073
C         26.94443        34.17955         1.27245
C         28.15951        36.05610         2.50084
C         26.85878        35.35668         2.23915
C         28.16785        37.54917         2.72495
C         26.85740        38.39869         2.70112
C         28.14583        40.36662         1.80191
C         26.88187        39.51157         1.62615
C         28.17462        41.77146         1.28483
C         26.90895        42.29512         0.64868
C         28.18186        44.40684         0.16022
C         26.97270        43.79646         0.45381
C         28.21108        45.75927        -0.34562
C         26.98894        46.46577        -0.48757
C         28.30343        48.59427        -0.48813
C         27.03035        47.90580        -0.83785
C         28.40620        49.87954        -0.05127
C         26.53752        50.92192        -0.42917
C         28.07484        52.86394        -0.74026
C         26.78192        52.23654        -0.87355
C         28.10026        54.23731        -1.08699
C         26.95623        54.93851        -1.53319
C         27.04651        56.43209        -1.77696
C         29.23927        12.88358        -2.37052
C         30.47926        15.06324        -2.58148
C         29.23479        14.26354        -2.22266
C         30.51113        16.46822        -2.00031
C         29.32394        17.09650        -1.66178
C         30.52154        19.25070        -1.45936
C         29.38907        18.40881        -0.91615
C         30.51997        20.71056        -1.13196
C         29.34708        21.29763        -0.44700
C         30.62195        23.38694        -0.17925
C         29.42039        22.63028        -0.02562
C         30.63012        24.77166         0.10429
C         29.37392        25.44875         0.33188
C         30.59586        27.51529         0.93632
C         29.39133        26.94747         0.16452
C         30.62614        29.01321         0.88545
C         29.39083        29.78418         0.49975
C         30.64531        31.84741         1.18795
C         29.34352        31.17741         1.06094
C         30.66986        33.32499         1.44470
C         29.37972        34.00556         1.70509
C         30.67193        36.07846         2.10564
C         29.41478        35.37267         2.07579
C         30.69193        37.49072         2.15579
C         29.45671        38.25849         2.40433
C         30.63183        40.25124         1.56446
C         29.43670        39.64609         1.92229
C         30.62179        41.45645         0.66072
C         29.44393        42.39220         0.83161
C         30.68048        44.20704        -0.25252
C         29.43971        43.65291         0.27311
C         30.81225        45.58386        -0.89951
C         29.47667        46.36599        -0.84908
C         30.78728        48.63774        -0.62895
C         29.52713        47.89796        -0.88217
C         30.76728        50.02625        -0.47374
C         29.52301        50.75682        -0.33668
C         29.31954        52.13675        -0.50952
C         31.75786        17.16399        -1.92576
C         32.98152        19.32973        -1.77020
C         31.81438        18.55692        -1.69603
C         33.00476        20.73844        -1.48903
C         31.80862        21.41583        -1.08133
C         33.04837        23.49991        -0.72851
C         31.83401        22.75019        -0.65637
C         33.07739        24.87341        -0.35092
C         31.85554        25.52701         0.06592
C         33.09509        27.62501         0.46986
C         31.88177        26.87631         0.45339
C         33.09770        28.95872         0.93842
C         31.84219        29.67222         1.13503
C         33.09186        31.67348         2.00121
C         31.86063        31.05604         1.40824
C         33.09861        33.19222         1.96775
C         31.94299        33.94280         1.89867
C         33.13490        36.10368         2.23802
C         31.92454        35.37810         2.06839
C         33.14280        37.50547         2.24140
C         31.91413        38.22404         2.09404
C         33.09297        40.53095         1.95571
C         31.88329        39.62246         1.81709
C         33.14721        41.69587         0.96507
C         31.93718        42.17596         0.50481
C         33.61000        44.56967        -0.01318
C         31.78856        43.39087        -0.27043
C         33.22257        45.88694         0.15372
C         32.00052        46.45480        -0.36213
C         31.95657        47.84413        -0.39830
C         34.20097        21.48647        -1.55110
C         35.41675        23.64811        -1.34544
C         34.23326        22.85866        -1.20964
C         35.44556        24.98542        -0.98496
C         34.28045        25.61217        -0.44134
C         35.50785        27.71999        -0.06942
C         34.31931        26.99919        -0.01490
C         35.52973        29.19746         0.24767
C         34.31043        29.74147         0.95577
C         35.61974        31.83457         1.40150
C         34.34181        31.02856         1.44016
C         35.66830        33.05001         2.36107
C         34.35352        33.84396         2.39726
C         35.70632        36.02867         2.46599
C         34.37419        35.33875         2.52231
C         35.70904        37.52487         2.36649
C         34.40119        38.26923         2.40334
C         35.66191        40.36426         1.64702
C         34.40004        39.74706         2.12915
C         35.63177        41.68826         1.23185
C         34.43550        42.41551         0.91660
C         34.59125        43.79068         0.66859
C         36.69480        25.79019        -1.27087
C         37.92190        27.81776        -0.50799
C         36.73006        27.14551        -0.59205
C         38.06743        28.98492         0.38758
C         36.82242        29.60530         0.93228
C         38.10649        31.78357         1.30186
C         36.88051        30.95982         1.65432
C         38.08696        33.16778         1.51532
C         36.89449        33.87861         1.95008
C         38.07458        36.03071         1.65726
C         36.89516        35.26188         2.00246
C         38.05691        37.43700         1.58521
C         36.90059        38.21569         1.82075
C         36.85374        39.58905         1.56483
C         39.29654        29.78489         0.43079
C         40.50376        31.90197         0.67505
C         39.29444        31.11878         0.81874
C         40.49418        33.24667         0.87615
C         39.28466        33.93762         1.25018
C         39.26382        35.32292         1.32813
O         10.94400        36.51181        -1.54108
O         15.97557        40.61960         1.73421
O         19.62204        13.01637        -2.99427
O         24.63296        19.11978        -1.78807
O         24.65322        37.90166         3.65377
O         35.98028        36.84987         3.64637
O         14.54986        38.21233         2.40071
O         19.11738        15.72845         1.79385
O         27.46946        35.25406         3.54725
O         32.90879        43.82185        -0.97794
O         21.54557        39.05994         2.88830
O         19.97232        46.34662        -3.34195
O         20.18221        54.41356        -1.31964
O         12.39033        30.89836         0.12717
O         22.01267        26.26219        -0.27430
O         25.46421        32.98498        -0.21169
O         15.72087        41.01893        -2.03163
O         28.04144        41.51051         2.71656
O         14.38375        29.55234         0.22392
O         26.61835        48.23518        -2.21775
O         20.58537        49.94987        -4.14244
O         34.44655        39.24324         3.51058
O         10.26488        32.10547         2.91212
O         27.17342        17.04615        -2.92557
O         30.16621        20.19861        -2.49336
O         27.31493        50.43193         0.61947
O         20.43153        16.29854        -1.52461
O         22.73531        58.86849        -4.12014
O         23.10132        52.23560        -3.95349
O         30.81082        32.84693         0.04934
O         16.28572        20.72344         2.97052
O         37.46707        28.58434         1.73408
O         20.59158        18.23279         2.38778
O         23.01215        31.16391         3.16473
O         20.79906        32.73572         3.40676
O         10.35857        29.23957        -0.76512
O         18.41796        19.39585         2.92252
O         25.03966        42.62046         2.37537
O         24.78155        29.25217        -0.40552
O         26.40931        12.23781        -0.29590
O         12.27176        33.92495         3.41661
O         29.00688        37.98865         3.81906
O         29.34444        47.11971        -2.10629
O         34.21084        34.50378         3.71849
O         16.49241        22.71505         0.01688
O         10.78882        39.56415        -2.43127
H         11.64564        39.86760        -2.82680
O         27.95248        56.68120        -2.87097
H         27.57015        56.28210        -3.67951
O         23.71993        15.65148         1.24522
H         24.43376        14.98945         1.12064
O         31.65994        14.34206        -2.22099
H         31.67394        14.23870        -1.24774
O         29.51768        29.97170        -0.98349
H         30.11116        30.74259        -1.12908
O          8.83653        34.31584         3.00626
H          8.94277        33.52386         3.57861
O         22.39515        41.71592        -1.20079
H         21.63351        41.88663        -1.79814
O         20.88774        37.51821        -0.32433
H         20.45901        36.73094        -0.72251
O         14.85193        30.55425         3.78257
H         14.65789        31.29838         4.39322
O          9.97509        31.75273        -0.68251
H         10.50265        31.06559        -1.16288
O         22.10391        13.51852        -3.46423
H         21.23207        13.85307        -3.77904
O         23.18212        27.23938         3.04218
H         23.77864        27.87736         3.48770
O         30.36274        40.84264        -0.66359
H         30.34708        41.56504        -1.32935
O         36.97554        30.64383         3.05334
H         37.46537        29.78958         3.11626
O         23.56342        31.49579        -0.37211
H         24.00448        30.95438        -1.06787
O         22.97203        44.98589         1.66856
H         23.84909        45.32226         1.99250
O         26.84048        41.68477        -0.68395
H         26.14438        42.18704        -1.18726
O         13.27685        40.65498        -2.77945
H         14.15231        40.26471        -3.01344
O         16.65647        26.64047        -0.04558
H         17.45358        26.30532        -0.51759
O          9.78425        35.71371        -1.84173
H          9.18338        36.35625        -2.29314
O         18.11518        49.48069        -4.59241
H         18.97312        49.24115        -5.01428
O         35.57308        29.89111        -1.06017
H         34.75865        29.64861        -1.55086
O         30.39593        27.12924         2.33677
H         31.11572        27.53646         2.86446
O         15.94564        45.04457        -3.78014
H         15.08186        44.60258        -3.96801
O         24.94999        33.59436         3.35783
H         24.23266        33.78616         3.99938
O         13.93645        36.55552        -0.70604
H         13.39527        35.76232        -0.94931
O         21.79652        33.70555        -0.03612
H         22.39787        32.96112        -0.30107
O         15.75371        27.24498         3.45765
H         15.50423        28.09601         3.87922
O         33.10776        31.34837         3.44248
H         33.99006        31.63499         3.78833
O         31.12209        45.34171        -2.28808
H         30.75939        46.10519        -2.79726
O         13.31376        43.68167        -3.54300
H         13.22382        42.70345        -3.63157
O         27.13204        34.85869        -0.00547
H         26.83247        34.23330        -0.70705
O         16.99753        38.60895         3.21158
H         16.21221        39.16146         3.42593
O         28.53324        23.01254         2.15908
H         29.32842        23.53562         2.39770
O         12.78487        18.44988         2.68925
H         13.44838        18.78268         3.32905
O         19.21125        30.41457         3.65138
H         19.40913        31.13180         4.29223
O         36.81332        25.96119        -2.69919
H         35.99520        26.38967        -3.02431
O         17.85650        29.05868        -0.28579
H         18.24790        28.26099        -0.72193
O         29.78490        18.09286         0.46228
H         29.08352        17.54090         0.86708
O         19.86039        30.43310         0.08944
H         19.15735        30.17178        -0.56355
O         26.79468        39.12242         3.92673
H         26.72090        38.48852         4.66948
O         32.85668        41.21197         3.22774
H         33.16564        40.59588         3.93474
O         26.95421        38.89616         0.32447
H         26.97711        39.61933        -0.34782
O         24.64673        43.29324        -1.17261
H         23.86183        42.72989        -1.41713
O         12.43490        34.44485        -0.18181
H         11.65763        34.32665        -0.77212
O         35.71259        32.40182         0.07016
H         35.67421        31.65143        -0.57786
O         19.38592        26.82768        -0.56737
H         20.30734        26.60541        -0.87445
O         29.59425        27.19572        -1.24754
H         29.53031        28.17191        -1.40134
O         25.60249        45.08536         1.92624
H         25.64024        44.28448         2.51280
O         12.58078        31.30943         3.82882
H         11.80708        31.89886         4.00859
O         17.18416        25.27540         3.32331
H         17.12769        24.34782         3.63295
O         14.73508        34.20145         3.87706
H         13.91773        34.60805         4.24796
O         35.83706        32.59358         3.71411
H         35.61980        33.35902         4.29715
O         24.15563         9.47398        -0.45280
H         25.02125         9.07613        -0.21742
O         12.52977        36.62947         2.73439
H         13.18336        37.28057         3.08983
H          4.85298        31.12604         0.53497
H          4.76333        33.59187         0.65562
H          7.46690        26.91359         0.70180
H          6.15764        29.02034         0.56807
H          6.05665        35.79410         0.55426
H          7.37069        37.86108         0.15089
H          9.88408        22.64978         0.87302
H          8.68263        24.81241         0.73715
H          8.70426        39.83480        -0.41573
H         10.05505        41.90863        -0.73898
H         12.46881        18.38143         0.65547
H         11.11555        20.47140         1.01741
H         11.36028        43.96920        -1.29285
H         12.58976        46.01634        -1.80543
H         14.81277        14.22185        -0.04008
H         13.62131        16.27629         0.53039
H         13.87650        48.14321        -1.95343
H         15.08216        50.21296        -2.16361
H         17.17062        10.19631        -1.77684
H         15.97902        12.16050        -0.79027
H         16.25994        52.33852        -2.46594
H         17.36839        54.46853        -2.96309
H         19.50574         6.24708        -3.52154
H         18.32553         8.24875        -2.67848
H         18.64652        56.74808        -3.11615
H         19.76522        58.86602        -2.65046
H         22.82098         3.07023        -4.91571
H         20.69353         4.23649        -4.36163
H         23.10438        62.34028        -2.13358
H         20.98458        61.10570        -2.36799
H         25.01390         4.18995        -4.56194
H         26.31876         6.17780        -3.83638
H         26.58288        59.07041        -1.84671
H         25.28091        61.18244        -2.06439
H         27.60868         8.15185        -3.11685
H         28.86963        10.21980        -2.80605
H         29.04600        54.79372        -0.99834
H         27.51351        56.91665        -0.87828
H         30.15820        12.38445        -2.71222
H         30.50297        15.16158        -3.70304
H         31.72400        50.56604        -0.39565
H         30.22752        52.73891        -0.68575
H         32.67835        16.61373        -2.17140
H         33.93554        18.83467        -2.00855
H         33.84720        46.53951         0.78410
H         32.87515        48.38760        -0.12279
H         35.12741        20.99599        -1.88545
H         36.32111        23.18268        -1.76497
H         36.58996        42.17953         1.00104
H         35.52315        44.26939         1.00888
H         37.59547        25.20265        -0.95651
H         38.82799        27.38938        -0.96242
H         38.97604        37.95082         1.26421
H         37.76099        40.08441         1.18568
H         40.22020        29.34879         0.02045
H         41.42541        31.38789         0.36605
H         41.41028        33.83838         0.73381
H         40.17659        35.89359         1.09999
