         344
 CSIRO Nanostructure Databank - Neutral Graphene Oxide Data Set
C          2.45115         2.47042         3.18980
C          2.22611         3.82126         2.79584
C          3.67241         1.87936         3.04797
C          3.19032         4.53820         2.07028
C          1.77466         6.61617         1.88882
C          1.58851         7.92122         1.45573
C          2.93814         5.87853         1.56104
C          2.57450         8.58790         0.68765
C          1.25310        10.69572         0.39792
C          1.18562        12.04793         0.13310
C          2.46882         9.97084         0.27195
C          2.36342        12.79643        -0.15065
C          1.14844        15.03528        -0.18602
C          1.14786        16.38141        -0.04532
C          2.36116        14.23221        -0.17764
C          2.38278        17.18680         0.27468
C          2.52969        18.40697        -0.65538
C          4.84992         2.67596         2.56259
C          4.43934         3.89671         1.77197
C          5.84191         1.82222         1.83956
C          5.31888         4.44526         0.82930
C          3.91333         6.49824         0.72831
C          3.73991         7.86134         0.32678
C          5.07389         5.76177         0.31799
C          4.73904         8.49566        -0.48134
C          3.62629        10.65467        -0.20968
C          3.59313        12.08516        -0.30370
C          4.80999         9.92887        -0.58286
C          4.82768        12.79556        -0.43151
C          3.59482        14.91349        -0.11341
C          3.62094        16.31283         0.19355
C          4.83942        14.20664        -0.22450
C          4.83624        16.89961         0.45797
C          3.61796        19.19825        -0.83453
C          4.91191        18.97565        -0.19068
C          6.64852         2.31049         0.81072
C          6.45263         3.68982         0.32904
C          7.59124         1.48119         0.18020
C          7.31482         4.22632        -0.61362
C          5.94699         6.32694        -0.64613
C          5.65649         7.61945        -1.10799
C          7.15450         5.60792        -1.09291
C          7.41675         8.65484        -1.56546
C          6.04282        10.64250        -0.85226
C          6.05743        12.08962        -0.61591
C          7.27281        10.00261        -1.13314
C          7.26861        12.81011        -0.52682
C          6.07781        14.90409        -0.12114
C          6.09553        16.31183         0.15694
C          7.30221        14.19682        -0.24109
C          7.29402        17.07069         0.13411
C          6.17783        19.23341        -0.62097
C          7.34714        18.51180        -0.07040
C          8.46483         1.98357        -0.92765
C          8.54598         3.49878        -0.91378
C          9.80114         1.29549        -0.87831
C          9.72686         4.16012        -1.07340
C          8.48248         6.39555        -1.42724
C          8.54972         7.86150        -1.32539
C          9.81580         5.64575        -1.40747
C          9.77008         8.53695        -0.91429
C          8.57346        10.75908        -1.22184
C          8.55986        12.04858        -0.41786
C          9.79166         9.93743        -0.84397
C          9.82110        12.88628        -0.69854
C          8.53990        14.89668         0.04746
C          8.53191        16.34127         0.23305
C          9.76337        14.21409         0.02328
C          9.72772        17.02560         0.45713
C          8.56842        19.15578         0.02630
C          9.77389        18.46375         0.42216
C         11.00790         1.96502        -0.84781
C         11.00953         3.46351        -0.64367
C         12.26481         1.30604        -0.80426
C         12.26144         4.15621        -1.19496
C         10.90225         6.29500        -0.53242
C         10.97382         7.79613        -0.67999
C         12.24401         5.61440        -0.76949
C         12.16376         8.46235        -0.42287
C         10.98632        10.63517        -0.46471
C         11.00101        12.03578        -0.29448
C         12.19834         9.87721        -0.30588
C         12.14770        12.70333         0.28731
C         10.97966        14.86092         0.36345
C         10.93383        16.25490         0.91800
C         12.19380        14.17694         0.34699
C         12.24763        16.97901         0.79539
C         10.95152        19.13854         0.70826
C         12.21620        18.45096         1.15387
C         13.49474         2.01549        -0.69315
C         13.51058         3.43572        -0.75777
C         14.73612         1.33059        -0.51559
C         14.71425         4.16225        -0.61719
C         13.41854         6.27426        -0.56643
C         13.44946         7.71803        -0.13542
C         14.69800         5.58934        -0.62453
C         14.62636         8.45025        -0.80983
C         13.45647        10.53880        -0.11121
C         13.46756        11.92754         0.35935
C         14.66460         9.88530        -0.34934
C         14.71082        12.70550         0.27589
C         13.45356        14.84476         0.54544
C         13.42921        16.29967         0.73171
C         14.65876        14.13700         0.46246
C         14.71476        17.04516         1.06471
C         13.45597        19.15600         0.67313
C         14.66884        18.50421         0.65606
C         15.94510         2.02038        -0.38761
C         15.95178         3.46762        -0.41786
C         17.19888         1.33161        -0.30491
C         17.15418         4.19368        -0.31339
C         15.92320         6.31365        -0.56665
C         15.93816         7.73679        -0.60595
C         17.16108         5.60036        -0.44362
C         17.14898         8.46406        -0.54687
C         15.90632        10.58393        -0.25289
C         15.88320        12.00937        -0.02945
C         17.13094         9.89583        -0.42466
C         17.09965        12.76644        -0.37995
C         15.97580        14.84146         0.69115
C         15.95029        16.34453         0.57694
C         17.08675        14.25342        -0.16036
C         17.12664        17.02559         0.34231
C         15.89401        19.17823         0.40685
C         17.14120        18.49985         0.40163
C         18.41337         2.00901        -0.20136
C         18.42471         3.49408         0.09398
C         19.64811         1.33191        -0.23215
C         19.67003         4.19644        -0.40244
C         18.40898         6.32378        -0.53743
C         18.40246         7.74995        -0.58890
C         19.62413         5.59142        -0.64574
C         19.64532         8.47226        -0.67104
C         18.41759        10.62964        -0.11701
C         18.38691        12.08881        -0.50391
C         19.66321         9.92250        -0.58728
C         19.55297        12.82410        -0.67204
C         18.38573        14.95188        -0.16716
C         18.35527        16.34255         0.01432
C         19.56269        14.24172        -0.49917
C         19.55496        17.17454        -0.34634
C         18.35554        19.16511         0.48354
C         19.62684        18.37903         0.60516
C         20.87726         2.03618        -0.28426
C         20.86039         3.47011        -0.46190
C         22.11238         1.34993        -0.20792
C         22.14288         4.12389        -0.91670
C         20.84240         6.30299        -1.17912
C         20.85022         7.77491        -0.86218
C         22.13614         5.62929        -0.78966
C         22.08724         8.46655        -0.93753
C         20.80435        10.63471        -0.86192
C         20.81676        12.12742        -1.12691
C         22.05326         9.91773        -1.14907
C         22.11391        12.82433        -0.73264
C         20.86020        14.93109        -0.15997
C         20.85573        16.41723        -0.39090
C         22.12278        14.22080        -0.57207
C         22.02925        17.11178        -0.45158
C         20.89677        19.15177         0.39032
C         22.03712        18.53426        -0.08938
C         23.34499         2.04270        -0.14110
C         23.36175         3.46112        -0.32874
C         24.56710         1.38304         0.17994
C         24.52385         4.18511        -0.09842
C         23.28747         6.34480        -0.63628
C         23.32234         7.79474        -0.82754
C         24.49974         5.69075        -0.02420
C         24.55689         8.52321        -0.77895
C         23.37698        10.68293        -1.08205
C         23.34040        12.12828        -0.79213
C         24.60277         9.92382        -0.79918
C         24.56966        12.81197        -0.62336
C         23.33969        14.94726        -0.63432
C         23.24850        16.41678        -1.06402
C         24.54803        14.23439        -0.63321
C         24.58063        17.29191        -1.02668
C         23.30628        19.16434         0.09899
C         24.51464        18.50263        -0.11264
C         25.74859         2.09884         0.35646
C         25.73689         3.52858         0.24802
C         27.01008         1.42388         0.61311
C         26.95040         4.28165         0.39812
C         25.80667         6.29670        -0.47110
C         25.83733         7.77636        -0.72987
C         27.02187         5.62067         0.02681
C         27.09041         8.50268        -0.44012
C         25.82769        10.65603        -0.56996
C         25.81828        12.06659        -0.53820
C         27.06774         9.92718        -0.37124
C         27.05715        12.79621        -0.34415
C         25.83604        14.95597        -0.69105
C         25.87319        16.45278        -0.84788
C         27.05062        14.18993        -0.33008
C         27.17952        17.21378        -0.51496
C         25.70238        19.12709         0.31320
C         26.97657        18.54550         0.18625
C         28.17350         2.11296         0.81947
C         28.16153         3.61621         0.98922
C         29.44071         1.44292         1.00989
C         29.45941         4.27069         0.57017
C         28.26675         6.33922        -0.01611
C         28.27557         7.77565        -0.21029
C         29.47132         5.63439         0.18531
C         29.50282         8.48476         0.05398
C         28.26406        10.62838        -0.06633
C         28.28349        12.06692        -0.06717
C         29.47421         9.90348         0.19114
C         29.47226        12.74211         0.26574
C         28.28048        14.96341        -0.15655
C         28.10546        16.35886         0.40102
C         29.56186        14.20591         0.17709
C         29.41129        17.07679         0.66927
C         28.10540        19.17181         0.70173
C         29.36898        18.48906         0.80973
C         30.61589         2.14475         1.03266
C         30.65345         3.55990         0.76106
C         31.91759         4.25407         0.64501
C         30.76802         6.31631        -0.18491
C         30.72835         7.78178         0.20695
C         31.98328         5.55511         0.27783
C         31.87263         8.47736         0.59458
C         30.65810        10.58991         0.59906
C         30.62353        12.03678         0.74378
C         31.83269         9.85649         0.81852
C         31.66955        12.75296         1.33559
C         30.63863        14.91509         0.88134
C         30.61109        16.37631         0.92192
C         31.64332        14.15994         1.46079
C         31.77593        17.11310         1.24035
C         30.54406        19.19300         1.15531
C         31.73923        18.50331         1.34556
O         16.74991        13.73561        -1.46814
O         22.83807        16.33150        -2.41434
O          7.61131         5.84975        -2.45988
O          6.32536         8.08674        -2.24676
O          4.83265        18.20302         0.99412
O         26.07162        15.61878        -2.02456
O         22.74934        10.34630        -2.38240
O         25.91427         6.77818        -1.83424
O         12.65363        12.11789         1.55554
O         29.29252        14.77580        -1.16871
O         14.78943        17.03789         2.53873
H         15.20129        16.17795         2.79568
O         10.74689        16.10349         2.37814
H         11.03016        16.96374         2.78050
O         12.28777         4.05553        -2.64215
H         11.64713         4.72440        -2.99733
O         30.83748         6.31821        -1.65619
H         30.76250         5.38752        -1.95539
O         12.24249        18.48218         2.63684
H         13.11550        18.09425         2.89781
O         24.43055         6.02039         1.40496
H         23.67587         5.53068         1.79458
O         20.89469        14.84117         1.32888
H         20.38627        15.60620         1.68661
O         27.42067        16.17272         1.67254
H         27.38710        17.04157         2.12702
O          9.96185        13.27172        -2.08908
H          9.71417        12.49751        -2.65097
O          8.63650        11.63005         0.97367
H          8.65963        12.43499         1.53372
O         11.10223         3.62314         0.80410
H         10.26146         3.31481         1.20245
O         27.86731        17.48395        -1.73894
H         27.54634        16.82858        -2.40141
O         10.26593         5.76471        -2.79297
H          9.47807         5.59189        -3.35743
O         18.48499         3.60174         1.56348
H         17.68973         3.15179         1.92030
O         20.74126         6.20334        -2.66135
H         21.39730         6.83100        -3.03664
O         22.21350         3.86877        -2.36344
H         21.56875         4.49060        -2.78600
O         28.07319         3.84539         2.44538
H         28.87334         3.44363         2.84657
O         19.70455        17.78794         1.95183
H         19.67179        18.51773         2.60584
O          7.82183         1.63936        -2.20720
H          8.37959         2.00611        -2.92525
O         18.50418        10.65035         1.36270
H         18.54599         9.71715         1.66343
O         20.76967        12.23921        -2.58567
H         21.54964        11.73885        -2.93227
O         19.33190        17.71499        -1.68038
H         19.86663        17.19560        -2.31874
O          2.21927        17.69542         1.62330
H          3.06885        18.13751         1.85657
O         14.33905         8.44048        -2.23983
H         15.08480         8.87866        -2.70083
O          8.71039        11.06732        -2.65303
H          8.68987        10.21772        -3.14357
O          5.53499         3.19683         3.78089
H          4.86862         3.71307         4.28306
O         16.33128        14.58439         2.10179
H         16.18075        13.63075         2.28181
O         13.64810         7.72149         1.30202
H         13.60637         8.65315         1.60821
O         24.71372        17.90111        -2.32143
H         24.05207        17.40849        -2.89195
O         10.48548         6.08555         0.84563
H         11.25086         6.28959         1.42461
H          1.61084         1.90409         3.61784
H          1.23972         4.26178         2.99274
H          3.83324         0.84016         3.37001
H          0.99766         6.15881         2.51684
H          0.67144         8.45059         1.74929
H          0.33915        10.16673         0.70199
H          0.22229        12.56619         0.23450
H          0.18941        14.52259        -0.35513
H          0.19183        16.92619        -0.07752
H          1.62699        18.67255        -1.23136
H          5.96638         0.77838         2.16648
H          3.55573        20.01413        -1.57368
H          7.70584         0.44078         0.52013
H          6.35254        19.91630        -1.46641
H          9.79437         0.19544        -0.94017
H          8.62796        20.23743        -0.16610
H         12.28820         0.20519        -0.81633
H         10.95867        20.23904         0.67256
H         14.73989         0.23036        -0.49642
H         13.40025        20.22396         0.41095
H         17.20257         0.23466        -0.40183
H         15.88330        20.27472         0.30858
H         19.66011         0.23161        -0.27198
H         18.38127        20.26597         0.49628
H         22.10553         0.25704        -0.07910
H         20.97445        20.16690         0.81385
H         24.57187         0.28813         0.28908
H         23.32500        20.15996         0.57174
H         27.02116         0.32250         0.59891
H         25.62344        20.09013         0.84509
H         29.44933         0.34571         1.09137
H         28.02954        20.20138         1.08551
H         31.57049         1.61598         1.17004
H         32.83715         3.69663         0.88045
H         32.96794         6.03239         0.17069
H         32.82832         7.95162         0.72308
H         32.75613        10.36698         1.12295
H         32.53073        12.21677         1.75621
H         32.46355        14.65070         2.00313
H         32.72755        16.58785         1.39943
H         30.50927        20.28646         1.26058
H         32.65708        19.05454         1.59294
