         278
 CSIRO Nanostructure Databank - Neutral Graphene Oxide Data Set
C        -11.07867         0.64250        -0.58372
C         -9.88481         1.37553        -1.10039
C         -8.59321         0.62979        -1.19429
C         -7.26838         1.35005        -1.39053
C         -5.90926         0.58763        -1.27001
C         -4.80930         1.41833        -0.56136
C         -3.53713         0.68373        -0.19875
C         -2.34714         1.43755         0.33777
C         -1.20000         0.77032         1.11627
C          0.16630         1.46612         0.80534
C          1.35409         0.74255         1.46533
C          2.70232         1.44302         1.53694
C          3.97065         0.65735         1.25629
C          5.26524         1.41018         0.96927
C          6.36102         0.71778         0.22370
C          7.31156         1.52991        -0.62965
C          8.40826         0.83093        -1.37485
C          9.64402         1.63337        -1.76775
C         10.87683         0.77630        -1.99706
C         -9.91234         2.90170        -1.13578
C         -8.55026         3.57873        -0.99561
C         -7.28749         2.85559        -1.35909
C         -5.92834         3.57019        -1.30387
C         -4.84550         2.78080        -0.54020
C         -3.59137         3.55215        -0.25318
C         -2.54557         2.91445         0.65536
C         -1.17391         3.67907         0.77523
C          0.10260         2.96288         1.11473
C          1.42957         3.70167         1.25142
C          2.71808         2.95978         1.50749
C          4.04928         3.69059         1.36090
C          5.32498         2.93056         1.06229
C          6.55535         3.69390         0.55560
C          7.67857         2.93459        -0.15684
C          8.55657         3.75309        -1.06348
C          9.71622         2.83726        -0.77191
C         -8.56129         4.86966        -0.60576
C         -7.32406         5.62225        -0.21046
C         -6.05572         5.04755        -0.86680
C         -4.83863         5.81480        -0.47923
C         -3.56580         5.05385        -0.27512
C         -2.39632         5.74788         0.39522
C         -1.06572         5.06795         0.10696
C          0.17775         5.87550         0.55384
C          1.45631         5.17549         0.93314
C          2.72743         5.95700         1.21158
C          4.02522         5.18125         1.09111
C          5.16596         5.79021         0.36785
C          6.34104         5.12330         0.13311
C          7.42110         5.85421        -0.57570
C          8.54769         5.10436        -1.10332
C         -7.36108         7.11822        -0.46460
C         -6.24727         7.87429        -0.24643
C         -5.04295         7.12245         0.24011
C         -3.90554         7.75029         0.95912
C         -2.51191         7.16471         0.85652
C         -1.29981         8.06664         0.78171
C          0.04027         7.35078         0.88216
C          1.32225         8.13261         0.78548
C          2.65694         7.38885         0.78768
C          3.72243         7.92067        -0.11070
C          5.01787         7.13088        -0.35471
C          6.26436         8.00257        -0.06163
C          7.43821         7.21759        -0.60212
C         -6.15741         9.26215        -0.69985
C         -5.06588        10.07833        -0.71139
C         -3.81052         9.79286        -0.01468
C         -2.54043        10.02315        -0.43253
C         -1.33144         9.50189         0.28472
C         -0.02668        10.22262        -0.06884
C          1.29354         9.53602         0.28427
C          2.45086        10.15576        -0.07171
C          3.67635         9.38043        -0.41412
C          4.95729        10.02603        -0.79549
C          6.13037         9.38425        -0.67231
C        -11.05279        -0.66528        -0.28392
C         -9.76888        -1.44940        -0.15293
C         -8.59909        -0.84377        -0.91274
C         -7.31192        -1.58648        -0.84643
C         -6.09500        -0.75588        -0.54298
C         -4.97609        -1.40075         0.21190
C         -3.57533        -0.84975        -0.08616
C         -2.54033        -1.40637         0.95091
C         -1.16919        -0.72523         0.78971
C          0.10023        -1.48642         0.96119
C          1.35982        -0.76113         1.40046
C          2.64423        -1.45233         1.06977
C          3.81602        -0.77650         0.84631
C          4.84177        -1.40471        -0.10150
C          6.21579        -0.75010        -0.08099
C          7.31617        -1.39604        -0.84250
C          8.57495        -0.62758        -1.11760
C          9.78931        -1.39339        -1.51529
C         10.90387        -0.56959        -2.05974
C         -9.85052        -2.92548        -0.40423
C         -8.69980        -3.68377        -0.46543
C         -7.30684        -3.08562        -0.56422
C         -6.46454        -3.56348         0.62100
C         -5.08932        -2.85222         0.68959
C         -3.82117        -3.62196         0.93501
C         -2.49642        -2.92532         0.73425
C         -1.21918        -3.68660         0.86798
C         -0.00224        -2.94847         1.41208
C          1.30043        -3.70108         1.14334
C          2.55703        -2.93611         0.89411
C          3.69772        -3.72060         0.31345
C          4.95570        -2.95678         0.02845
C          6.07237        -3.74555         0.68411
C          7.20303        -2.66411        -1.64346
C          8.43749        -3.50553        -1.58221
C          9.65178        -2.87895        -1.65376
C         -8.71542        -5.10001        -0.44163
C         -7.50287        -5.81087        -0.22761
C         -6.37531        -5.10855         0.48340
C         -5.08457        -5.85544         0.62685
C         -3.81099        -5.13128         1.01489
C         -2.51562        -5.89195         1.09589
C         -1.20809        -5.17292         1.01569
C         -0.02504        -5.83890         0.92227
C          1.24419        -5.09355         0.51630
C          2.56391        -5.84510         0.73106
C          3.74539        -5.17963         0.64811
C          5.04119        -6.00994         0.57299
C          6.41192        -5.19929         0.28034
C          7.17620        -5.63047        -0.98831
C          8.19620        -4.94776        -1.60831
C         -7.42107        -7.15364        -0.53219
C         -6.13259        -7.91049        -0.67504
C         -4.91190        -7.13694        -0.15116
C         -3.64283        -7.91823        -0.03243
C         -2.52699        -7.38186         0.81276
C         -1.23643        -8.12969         0.77122
C          0.00206        -7.30455         0.70244
C          1.28762        -8.02122         0.56047
C          2.59312        -7.35006         0.92356
C          3.67267        -8.04921         0.01696
C          4.78041        -7.11803        -0.48791
C          6.06507        -7.84007        -0.83150
C          7.14131        -7.07798        -1.18239
C         -6.13614        -9.30280        -0.07100
C         -4.99589        -9.99808         0.02766
C         -3.66874        -9.41333        -0.44160
C         -2.47571       -10.24472         0.09653
C         -1.15568        -9.49800         0.17927
C          0.03479       -10.11198        -0.01031
C          1.33923        -9.54843         0.53272
C          2.64309        -9.85348        -0.28720
C          3.95746        -9.51039         0.45209
C          5.16103       -10.06619        -0.26955
C          6.10461        -9.29260        -0.84887
O         -5.37576         5.91576        -1.82954
O          4.30830        -6.46423        -1.67541
O         -9.45926         0.82235        -2.37924
O          4.31738         4.63884         2.42178
O          1.93729         3.49134         2.60825
O         -4.87114         6.99713         1.70849
O          4.20027        -3.56286        -1.05122
O         -0.04453        10.40381        -1.49277
H          0.82188        10.75393        -1.78502
O          0.69652         7.83957         2.07571
O         -1.73651        -3.30648        -0.44435
O         -5.92181        -0.54174         0.90405
O         -0.74672         3.51567         2.15469
O          6.43755         0.88175         1.66023
O         -2.06302        -8.11897         1.98839
O          9.02039         2.57546         0.52872
O          4.05763        -9.82997         1.83507
H          4.89025        -9.44978         2.18254
O         -3.99198         9.13125         1.21669
O          6.26493        -2.93423        -2.37066
O          1.12392        -0.05390         2.66623
O          3.50829         0.91257         2.61550
O         -4.56337        -3.02717         2.04419
O         -8.01540        -1.44456        -2.12243
O          5.06295         6.77983        -1.75668
H          4.42299         7.37279        -2.22272
O         -3.18883         2.98835         1.93690
H         -2.54325         2.68734         2.62029
O          5.21821        -6.67192         1.83502
H          6.17342        -6.54226         2.08715
O         -5.96851        -8.09106        -2.11493
H         -5.83851        -7.20404        -2.51490
O         -6.57995        -3.71217        -1.71227
O          0.64724        -7.50450        -0.63825
O         -7.36495         2.11737        -2.61829
O          7.36284        -5.61225         1.28567
O         -2.43608         6.05137         1.81513
O          6.39079         3.38584         1.95081
O          1.13366        -4.85283        -0.90544
H          1.00560        -5.73451        -1.33402
O         -6.05772        -5.85054         1.70846
O          3.18706         8.35137        -1.40528
O          0.43657         1.43813        -0.61221
H          0.14276         0.56252        -0.97076
O         -3.28443        -5.57464         2.30291
O          2.95815         7.01899         2.17121
O          7.18103         1.24850        -2.06118
O         -0.20666        -2.89513         2.84018
H          0.68119        -2.92714         3.27000
O          7.20791        -1.54386         0.60382
O          1.20300         5.55565        -0.46814
O         -7.52100        -3.97730        -2.78189
H         -7.79731        -3.05944        -3.04950
O         -1.45100         0.93925         2.51486
H         -0.66878         0.60759         3.01735
O         -3.59584        -9.50210        -1.86987
H         -4.36136        -8.98772        -2.23364
O        -10.79963         3.39396        -0.12743
H        -10.39081         3.25601         0.75181
O          2.79767        -7.62117         2.32190
H          3.65171        -7.19926         2.58624
O         -7.20811         5.36946         1.21888
H         -6.59269         6.01824         1.62835
O         -3.86191        -6.99607        -1.15854
O          9.57563        -0.94085        -0.10746
O         -3.02284        -1.08165         2.25082
H         -2.58859        -1.64819         2.92181
O         -7.18760        -3.21909         1.80937
H         -6.56956        -3.33536         2.56732
O         -2.77062       -10.71680         1.41849
H         -2.60398        -9.97483         2.04684
O         -3.16370         4.27061        -1.43574
O         -1.42184         9.20472         1.69111
O         -0.94445         4.88798        -1.30333
H          0.00484         4.74942        -1.52444
O         -5.45203         3.56051        -2.66160
H         -4.62231         4.09607        -2.68290
O          4.29506        -1.09008        -1.40141
H          4.09589        -1.94646        -1.85943
O          2.90444        -8.64453        -1.12255
H          3.77750        -7.11834        -2.18129
O          2.24298        -3.56232         2.22666
O         -2.39682         1.09194        -1.06380
O          6.40376        -3.44008         1.82168
H          7.45710        -4.83415         1.90267
O          6.41350         8.19967         1.36106
H          6.53676         7.32345         1.78534
O         -0.37609        -1.12256        -0.37295
O         -9.40090        -1.29719         1.26462
H         -8.70035        -1.95808         1.49318
O         -5.43742         0.33712        -2.59194
H         -5.71256         1.10825        -3.14346
O         -3.26098        -1.39001        -1.37314
H         -2.57443        -0.82173        -1.78877
O          9.41064         2.23061        -3.06770
H          8.43632         2.23665        -3.21637
O          1.42958       -10.08268         1.85782
H          2.18238        -9.64423         2.32178
H         11.82566        -1.08324        -2.37320
H         11.76189         1.33505        -2.33891
H         10.72823         3.27831        -0.63442
H          9.40949         5.65855        -1.50300
H          8.29733         7.74650        -1.04246
H          7.06030         9.89799        -0.96306
H          4.92136        11.05167        -1.19477
H          2.41526        11.19799        -0.43354
H         -0.05372        11.23561         0.43048
H         -2.35669        10.53626        -1.38640
H         -5.13468        11.02452        -1.27110
H         -7.05954         9.62832        -1.21661
H         -8.27522         7.57528        -0.87435
H         -9.53136         5.33503        -0.36828
H        -10.35582         3.20339        -2.12033
H        -12.02945         1.19628        -0.56110
H        -11.97663        -1.17093         0.03664
H        -10.82100        -3.43542        -0.30419
H         -9.64674        -5.65118        -0.63589
H         -8.30292        -7.63119        -0.98787
H         -7.09632        -9.74007         0.24081
H         -4.99760       -11.02007         0.43516
H         -2.36457       -11.14172        -0.56045
H          0.04851       -11.14964        -0.38112
H          2.60534       -10.78549        -0.89704
H          5.27755       -11.16089        -0.27189
H          6.98704        -9.76498        -1.30919
H          8.04374        -7.56377        -1.58852
H          8.86260        -5.54370        -2.25624
H         10.57689        -3.47600        -1.70661
