         320
 CSIRO Nanostructure Databank - Neutral Graphene Oxide Data Set
C         30.54493        31.81732        -1.66991
C         30.53956        33.00503        -1.24231
C         30.42093        36.06403        -0.28455
C         30.23219        37.23024         0.10423
C         30.33626        40.40070         0.73604
C         30.17648        41.69012         0.58386
C         33.06676        29.06566        -2.42424
C         31.96797        29.70367        -2.31455
C         32.93821        31.82082        -1.76772
C         31.65591        31.01366        -1.95430
C         32.91274        33.26916        -1.34206
C         31.58941        33.93053        -1.01961
C         32.77315        36.08792        -0.48882
C         31.53431        35.24660        -0.62880
C         32.65898        37.43213         0.22098
C         31.33671        37.97883         0.85224
C         32.65738        40.23893         0.35331
C         31.31804        39.49126         0.73034
C         32.61212        41.78892         0.40791
C         31.24832        42.51335         0.38722
C         32.55368        44.55397         0.46270
C         31.48436        43.92229         0.38034
C         35.48664        27.36273        -1.07989
C         35.47584        28.84852        -1.47373
C         34.10775        29.51725        -1.35013
C         35.48491        31.77159        -1.17520
C         34.23031        31.03910        -1.59559
C         35.35069        33.20583        -0.75035
C         34.16425        33.89269        -0.80931
C         35.17525        35.96225         0.28687
C         34.15242        35.42818        -0.74614
C         35.21858        37.52529         0.26632
C         33.89770        38.09209         0.78682
C         35.13757        40.34661         1.26189
C         33.84271        39.56829         1.07506
C         35.07482        41.88916         1.35137
C         33.83407        42.57695         0.80408
C         35.12045        44.75624         0.95540
C         33.77343        44.10363         1.21549
C         35.29297        46.19795         0.95371
C         37.84843        27.36334        -0.38323
C         36.60250        26.84920        -0.87984
C         37.79239        28.72607        -0.21272
C         36.48980        29.50831        -0.43603
C         37.72599        31.67978         0.13457
C         36.79779        30.98381        -0.86102
C         37.83137        33.16150         0.03849
C         36.61198        33.90943        -0.35609
C         37.72348        35.90386         0.90706
C         36.55592        35.33485         0.09338
C         37.73626        37.41707         0.55625
C         36.41147        38.04057         1.08419
C         37.68309        40.25798         0.55491
C         36.43469        39.58641         1.12528
C         37.61557        41.79267         0.67735
C         36.33793        42.57477         0.84367
C         37.68135        44.79922         0.91921
C         36.32524        44.06702         0.99046
C         37.61500        46.14901         0.18720
C         36.34686        46.64018         0.34507
C         40.43569        24.95064        -1.44700
C         39.34240        25.40683        -1.11219
C         40.36812        27.46720        -0.42906
C         39.10632        26.57022        -0.15688
C         40.29875        28.75757         0.39418
C         38.94943        29.42193         0.42542
C         40.11172        31.63487         1.24095
C         38.86398        30.89833         0.70408
C         40.27691        32.99913         0.46287
C         38.99587        33.81234         0.35125
C         40.20041        35.97867         0.71206
C         39.04634        35.26558         0.54379
C         40.19699        37.37390         1.35137
C         38.95594        38.18914         1.01986
C         40.19551        40.32609         1.41941
C         38.94271        39.54532         1.05356
C         40.16906        41.75940         0.86303
C         38.87869        42.53845         1.08638
C         40.02072        44.50534        -0.20882
C         38.80337        43.90651         0.40297
C         40.05850        45.93449        -0.63587
C         38.68993        46.66829        -0.72212
C         40.13946        48.65858        -0.93753
C         39.09425        48.11953        -0.56689
C         42.94756        25.39242        -2.03894
C         41.83434        25.17268        -1.01733
C         42.92702        27.51646        -0.13380
C         41.69522        26.69479        -0.29387
C         42.82892        28.97630         0.20007
C         41.51968        29.60586         0.56884
C         42.64837        31.65537         1.57166
C         41.43333        30.87420         1.06099
C         42.76999        33.06139         0.89033
C         41.44434        33.85476         1.04977
C         42.74562        36.04562         0.86587
C         41.51251        35.27225         0.41431
C         42.72694        37.41830         0.98551
C         41.46745        38.17048         1.05193
C         42.68950        40.31303         0.63755
C         41.45251        39.53661         1.05503
C         42.62148        41.81080         1.00973
C         41.30708        42.42016         0.54711
C         42.48530        44.18892        -0.73808
C         41.33587        43.90810         0.25714
C         42.40977        45.59506        -1.38164
C         41.20413        46.46792        -1.13935
C         42.64888        48.37459        -1.68963
C         41.19868        47.95481        -1.73025
C         43.97773        25.99577        -1.57618
C         45.53897        27.43832        -0.07469
C         44.23641        27.04685        -0.71765
C         45.40364        28.77665         0.73785
C         44.10654        29.59598         0.66698
C         45.22098        31.68167         1.54865
C         43.97421        30.88531         1.45287
C         45.24699        33.20028         1.72039
C         43.95755        33.89886         1.31587
C         45.22401        35.99941         0.99744
C         43.99564        35.29448         1.05506
C         45.30992        37.45600         1.12755
C         43.99404        38.17008         1.25518
C         45.23720        40.23201         0.35522
C         44.02240        39.69917         1.18177
C         45.24733        41.76298         0.42937
C         43.93808        42.51850         0.56474
C         44.91408        44.14146        -1.09301
C         43.84746        43.92983        -0.04843
C         44.93602        45.36038        -1.89773
C         43.70573        46.19447        -1.93064
C         43.61897        47.65841        -1.95165
C         47.68575        28.53374        -0.81515
C         46.74328        27.75149        -0.96280
C         48.10320        29.37386         0.37051
C         46.63476        29.57953         0.99371
C         47.73138        31.66249         1.18004
C         46.38380        31.05882         0.83444
C         47.67666        33.10775         0.83947
C         46.36576        33.81779         0.84477
C         47.62650        35.95824         0.27304
C         46.54414        35.31170         1.16316
C         47.76732        37.43596         0.57058
C         46.59627        38.18500         0.80481
C         47.86050        40.41304         0.48686
C         46.58008        39.59362         0.69019
C         47.69879        41.56072        -0.56480
C         46.49941        42.47904        -0.15146
C         47.04639        44.00955        -2.17481
C         46.06360        43.44486        -1.22208
C         47.30908        43.39072        -3.40003
C         47.54218        42.58731        -4.31946
C         50.40202        28.94561         1.27087
C         49.08934        28.56251         1.18608
C         49.73420        31.41385        -0.23975
C         48.63811        30.81388         0.30326
C         50.02187        32.82672         0.27038
C         48.76369        33.68329        -0.00538
C         50.11275        35.79490        -0.39266
C         48.96556        35.16703         0.40984
C         50.26782        37.29119         0.09176
C         48.95040        38.09488        -0.12001
C         50.28374        40.20435        -0.10292
C         49.10672        39.57831         0.16658
C         50.31717        41.62684        -0.65720
C         48.99008        42.41288        -0.64781
C         50.38981        44.31866        -0.87983
C         49.06895        43.74072        -1.04343
C         51.55943        29.45424         1.25166
C         52.69494        31.46027         0.58814
C         52.74153        30.15446         1.16189
C         52.37615        32.56665         0.14751
C         51.33339        33.51931        -0.10125
C         52.48384        35.80457        -0.32863
C         51.39419        34.88582        -0.21818
C         52.64149        37.03819        -0.32700
C         51.49020        38.00759        -0.58757
C         52.67661        40.29549        -0.65161
C         51.62569        39.40790        -0.00169
C         52.76077        41.52255        -0.51683
C         51.65306        42.43301        -0.06798
C         51.48402        43.79272        -0.64373
O         42.73951        45.56478        -2.81389
O         45.99708        45.59109        -2.51294
O         33.03964        32.88786        -2.75569
O         32.64631        37.35598        -1.22137
O         42.36870        26.67593         0.98259
O         43.64801        29.78296        -0.70347
O         44.74236        30.92788         2.69642
O         33.66796        38.59097         2.13879
O         36.87521        42.28376        -0.48899
O         46.07992        28.78374         2.04460
O         39.07140        43.74211        -1.01740
O         37.66945        31.21158         1.53220
O         44.88646        42.42479         1.67287
O         48.09533        44.60915        -1.45928
O         35.17411        31.49150        -2.59007
O         36.92073        35.03809        -1.27617
O         35.95866        39.98385         2.43264
O         44.69929        37.75604         2.47439
O         39.48034        28.68425         1.58985
O         33.54927        42.33431        -0.58884
O         37.67900        40.00255        -0.87430
H         37.14737        40.71426        -1.30865
O         35.94323        28.97458        -2.78970
H         35.18690        28.83049        -3.40137
O         45.91745        26.40534         0.81618
H         46.62850        26.76090         1.40000
O         33.46459        44.26357         2.59352
H         34.14344        43.78506         3.12348
O         45.48986        33.45395         3.12249
H         45.12714        32.67951         3.61568
O         41.63933        35.11460        -1.03348
H         41.39096        35.96027        -1.46412
O         34.51243        35.82979        -2.07719
H         35.45426        35.55697        -2.22621
O         37.52932        35.58857         2.29335
H         38.28670        35.97189         2.79450
O         33.53090        29.31368        -0.08796
H         33.76727        28.41220         0.22188
O         44.08250        44.91110         0.97079
H         44.83047        44.57484         1.51728
O         48.13993        41.08329         1.75580
H         48.22205        40.39479         2.44966
O         51.62568        42.43218         1.33193
H         52.31385        43.03886         1.67495
O         35.80144        29.51211         0.82149
H         36.40563        29.91310         1.49497
O         40.57466        32.57825        -0.88001
H         40.75872        33.38041        -1.42025
O         42.22024        24.25963        -0.05459
H         42.73883        24.73681         0.63475
O         41.56520        44.57729         1.51674
H         42.19359        44.03774         2.05091
O         35.04416        42.20769         2.76920
H         35.68519        41.60888         3.22275
O         40.14179        37.14500         2.79128
H         40.17688        38.02709         3.22567
O         40.30357        27.91876        -1.79315
H         40.21599        27.13901        -2.38483
O         50.54108        30.86753        -1.17765
H         50.19807        29.98654        -1.43014
O         37.81088        37.39012        -0.87591
H         37.69331        38.31112        -1.21988
O         50.53967        41.44535        -2.06349
H         51.39609        40.98889        -2.21238
O         47.44197        40.87205        -1.80715
H         47.64363        41.45426        -2.58839
O         53.90998        29.64049         1.65131
H         54.63291        30.28430         1.51969
O         44.20212        40.15233         2.53525
H         44.62300        39.40441         3.03100
O         40.80678        47.87149        -3.06484
H         40.75460        48.76662        -3.45560
O         45.02399        39.85841        -1.03303
H         45.82699        40.13452        -1.55017
O         50.48496        37.32891         1.49674
H         51.37232        36.95805         1.69002
O         32.90037        39.91827        -1.02292
H         32.38410        40.52132        -1.59730
O         37.59533        30.95634        -2.05014
H         37.01396        30.68140        -2.79931
O         36.24140        37.58847         2.43401
H         35.58593        38.19145         2.86471
O         38.06439        45.12021         2.28901
H         37.38137        45.72982         2.64428
O         38.76777        42.67777         2.51717
H         39.44864        43.31357         2.82467
O         47.94984        31.43352         2.59342
H         48.87719        31.72434         2.76835
O         50.14483        32.67243         1.71555
H         50.10980        33.59104         2.09430
O         39.89886        31.85457         2.63903
H         38.92446        31.90388         2.78258
O         48.63863        38.09830        -1.55622
H         48.17497        38.94636        -1.76958
O         45.81564        33.75664        -0.51104
H         46.51870        34.09123        -1.13089
O         46.94200        35.53448         2.53758
H         46.36111        34.97473         3.11548
O         42.64061        40.32743        -0.80121
H         42.84517        39.43528        -1.14968
O         49.80666        35.79080        -1.79175
H         50.33642        36.50426        -2.22845
O         39.17082        26.07162         1.15951
H         38.31915        25.64848         1.38997
O         48.63140        27.39720         1.72277
H         49.35463        26.94238         2.19890
O         41.21219        34.14713         2.42697
H         41.21307        33.30075         2.93951
O         49.40257        35.15887         1.78098
H         48.62836        35.37379         2.36707
O         42.50744        42.01782         2.44341
H         43.36041        41.69779         2.84012
O         47.00027        43.36429         0.87525
H         47.39777        42.78714         1.57484
O         51.29006        38.09649        -1.99003
H         52.04597        38.58358        -2.38319
O         47.16651        35.87501        -1.09730
H         47.72115        36.50590        -1.62763
O         46.15931        31.14417        -0.58582
H         45.89417        32.06854        -0.82904
O         35.35051        38.06988        -1.04952
H         34.60538        37.72940        -1.60959
O         31.28092        37.58618         2.20805
H         30.53459        38.04181         2.64789
O         48.40256        33.57301        -1.40076
H         48.87979        34.27930        -1.90367
O         43.07315        32.78021        -0.49045
H         43.01008        33.61585        -1.00574
O         42.41771        43.21294        -1.78425
H         41.64303        43.39969        -2.35579
O         38.24659        46.49951        -2.06471
H         37.28625        46.69006        -2.11066
O         40.23655        40.42065         2.87234
H         41.00744        41.00640         3.08382
O         42.44821        31.89349         2.97842
H         42.26261        31.03821         3.41948
O         51.96423        39.33950         1.36823
H         51.99235        40.25720         1.71918
O         34.68274        35.55256         1.57278
H         35.31127        35.90969         2.25191
