         284
 CSIRO Nanostructure Databank - Neutral Graphene Oxide Data Set
C        -11.20782         0.65491         0.11376
C         -9.99649         1.41344        -0.18324
C         -8.99010         0.73776        -1.11550
C         -7.62492         1.51253        -1.14373
C         -6.31900         0.73089        -1.37771
C         -5.03139         1.57437        -1.19926
C         -3.72816         0.85672        -1.33356
C         -2.53026         1.59615        -1.86857
C         -1.27113         0.83573        -2.21013
C          0.07308         1.64866        -2.20316
C          1.37190         0.78500        -2.06088
C          2.61231         1.51576        -1.63746
C          3.71314         0.87193        -0.85568
C          5.00925         1.61237        -0.73242
C          6.23603         0.79208        -0.42038
C          7.41708         1.57128         0.09065
C          8.70451         0.85298         0.49759
C          9.92438         1.46517        -0.25303
C         11.15888         0.69021         0.18012
C         -9.88215         2.66972         0.30887
C         -8.58160         3.42043         0.41533
C         -7.52908         2.88563        -0.55140
C         -6.18405         3.56938        -0.48376
C         -5.13604         3.06128        -1.48798
C         -3.80360         3.83714        -1.37881
C         -2.49042         3.08748        -1.57140
C         -1.19618         3.66268        -1.08143
C          0.00092         2.68717        -0.98825
C          1.31199         3.50227        -0.79511
C          2.57229         3.01447        -1.45031
C          3.85940         3.79525        -1.40107
C          5.16312         3.01731        -1.29454
C          6.43053         3.74049        -0.95965
C          7.51384         3.02631        -0.19171
C          8.83819         3.70447        -0.02417
C          9.96581         2.96390         0.01785
C         -8.69346         4.95743         0.24730
C         -7.35718         5.58579         0.63359
C         -6.12406         4.93746         0.09627
C         -4.93098         5.82064        -0.12320
C         -3.73282         5.24084        -0.83530
C         -2.34208         5.90983        -0.65167
C         -1.27577         4.89134        -0.13541
C          0.05364         5.63398        -0.07302
C          1.31989         4.91563        -0.27833
C          2.62434         5.68997        -0.18603
C          3.83876         5.29354        -1.01817
C          5.08865         5.88694        -0.38265
C          6.39295         5.18725        -0.54021
C          7.72178         5.93837        -0.57368
C          8.77576         5.19240         0.30395
C         -7.23368         6.64522         1.45760
C         -5.87820         7.12457         1.94104
C         -4.79612         6.90413         0.88782
C         -3.41003         7.31280         1.35389
C         -2.38818         7.17029         0.23733
C         -1.08201         7.81475         0.50710
C          0.09752         7.01140         0.07001
C          1.29958         7.74357        -0.00406
C          2.62633         7.17776         0.14639
C          3.86937         8.01327         0.10516
C          5.06396         7.36280        -0.14104
C          6.35223         8.02044         0.02867
C          7.55290         7.37662        -0.15197
C         -5.83482         8.59446         2.32423
C         -4.68055         9.29648         2.32405
C         -3.39770         8.72194         1.92418
C         -2.21154         9.36015         2.09737
C         -0.91181         8.62636         1.81295
C          0.34636         9.49079         1.94662
C          1.38548         9.58464         1.06995
C          2.76408        10.01194         1.23904
C          3.85816         9.36742         0.67189
C          5.15314        10.01423         0.79991
C          6.31925         9.40270         0.47019
C        -11.26404        -0.68444         0.01760
C        -10.16005        -1.53361        -0.56282
C         -8.78193        -0.76891        -0.73153
C         -7.45504        -1.35978        -0.42915
C         -6.22256        -0.43286        -0.32929
C         -4.89154        -1.22507        -0.47726
C         -3.78524        -0.65231        -1.35724
C         -2.56860        -1.45705        -1.74385
C         -1.29584        -0.73241        -2.36983
C          0.04122        -1.47537        -2.06601
C          1.42790        -0.77276        -2.01439
C          2.35838        -1.34768        -0.90028
C          3.58208        -0.57855        -0.43633
C          4.77127        -1.31226         0.13653
C          6.11588        -0.65371        -0.02624
C          7.30967        -1.30311         0.62665
C          8.61228        -0.64677         0.27139
C          9.87550        -1.43230         0.32955
C         11.12618        -0.63106         0.44284
C         -9.86908        -2.72716         0.27504
C         -8.91819        -3.72261        -0.13903
C         -7.38208        -2.62044         0.40304
C         -6.15414        -3.50292         0.12143
C         -4.86212        -2.69069        -0.18528
C         -3.68247        -3.55673        -0.59549
C         -2.49028        -2.92718        -1.31318
C         -1.18171        -3.66535        -1.24513
C          0.06488        -2.93030        -1.66910
C          1.38698        -3.65019        -1.50607
C          2.48465        -2.84198        -0.88656
C          3.80091        -3.52921        -0.59155
C          4.69756        -2.83653         0.44013
C          6.05603        -3.56130         0.65922
C          7.31042        -2.76675         0.91754
C          8.61878        -3.50206         0.95520
C          9.79151        -2.86135         0.73510
C         -8.79170        -5.00360         0.64536
C         -7.83684        -5.92757         0.57924
C         -5.80674        -4.41890         1.29473
C         -4.60539        -5.28415         1.11867
C         -3.50943        -4.83813         0.18068
C         -2.14993        -5.45671         0.41785
C         -0.98704        -4.84863        -0.30385
C          0.31824        -5.67591        -0.36234
C          1.39701        -5.11735        -1.28236
C          2.71509        -5.82706        -1.12353
C          3.93347        -5.00600        -0.80513
C          5.15365        -5.81992        -0.38174
C          6.22414        -5.01830         0.34301
C          7.57120        -5.75042         0.41961
C          8.58103        -4.98229         1.31977
C         -7.10741        -7.03212         0.57809
C         -6.03187        -7.45872         1.61566
C         -4.67125        -6.76290         1.37462
C         -3.45139        -7.59494         0.99431
C         -2.11642        -6.93916         0.77250
C         -0.89154        -7.82372         0.42313
C          0.17153        -7.18591        -0.45477
C          1.31077        -7.93363        -0.62268
C          2.64524        -7.29484        -0.85922
C          3.84466        -7.96792        -0.24162
C          4.79740        -7.03740         0.49672
C          6.04594        -7.74151         0.97948
C          7.27191        -7.15401         0.95190
C         -5.87799        -8.97107         1.57893
C         -4.84479        -9.63851         1.04672
C         -3.73632        -8.91752         0.30991
C         -2.49305        -9.73136         0.02814
C         -1.24843        -9.22124        -0.03363
C         -0.05596       -10.08792        -0.42954
C          1.28012        -9.36843        -0.30968
C          2.40053       -10.03462         0.08174
C          3.72566        -9.37700         0.22174
C          4.73005        -9.83265         1.21617
C          5.83130        -9.09701         1.49701
O          7.14391        -1.75667         1.98819
O         -1.98651         8.37555        -0.48744
O          1.79803        -2.10490         0.20273
O         -3.99201        -4.84839        -1.18497
O          0.21499         2.33144        -3.42814
H         -0.68575         2.53076        -3.77822
O         -9.52127         0.65102        -2.38880
O          6.16309         3.30067        -2.31458
O         -6.49212        -7.12933         2.92273
H         -6.10511        -6.25955         3.18087
O         -0.18860        -8.04782         1.68054
O         -2.18538         1.34477        -3.24825
O          6.46709        -0.25743        -1.39777
O         -4.44660        -1.72447         0.82855
O          4.00222        -3.00046         1.68366
H          3.42679        -2.20850         1.81746
O         -5.19668         7.21887        -0.47086
O          0.06015        -2.53489        -3.06065
O         -2.07164        -3.84203        -2.37054
O         -5.67252         3.73750         0.87146
O          5.83955        -4.59694         1.68368
H          0.26557        -7.21165         1.93019
O          4.36312        -4.03093        -1.82782
O         -8.14057         3.14669         1.76634
H         -7.17671         3.36609         1.83178
O         -3.00800         6.36571         2.35962
O          2.79210         6.11722         1.17146
O          9.16927        -1.16683        -0.96723
O         -5.54255         6.33464         3.10123
H         -4.54180         6.25375         3.12153
O         -8.01083        -1.48252        -1.74883
O          2.40764         1.18113        -3.01869
O         -1.60950         3.84293        -2.45078
O          9.73509         1.33070        -1.67359
H          9.65923         0.36444        -1.87191
O          4.39785        -9.01474        -1.07098
O         -3.70659        -1.27032        -2.65805
O          1.16071         9.07870        -0.26632
O         -6.35946        -4.38958         2.39093
O          3.96465        -6.55254         1.63694
O          6.98656         2.53852         1.10444
O         -7.54610        -2.24830         1.71199
H         -7.25426        -2.96870         2.33162
O         -1.63808         4.38149         1.14923
H         -2.10836         5.09825         1.69553
O          3.09355         3.66052        -2.64268
O          2.92502        -6.79985        -2.20885
O         -4.25228        -5.83407         2.41061
O         -2.51949        -7.45004         2.08635
O         -7.87720         2.70330        -1.95303
O         -6.36506        -4.35963        -1.00020
H         -7.07914        -4.01130        -1.58972
O          4.68407        -6.75918         2.87711
H          5.08922        -5.86678         3.02977
O         -4.19849         1.33014        -0.03311
O          5.69354         5.20363         0.75932
O         -6.28804         0.20515        -2.70139
H         -7.15891         0.36496        -3.12816
O         -6.28210         0.16790         0.96201
H         -5.58313        -0.22108         1.53361
O         -1.27859        -4.50159         1.09995
O          1.39021        -4.59226        -2.63440
O          1.48895         3.73891         0.62318
O          4.02338         1.68274         0.33000
O         -1.42864        -0.91219        -3.78221
H         -2.34342        -0.65296        -4.03449
O         -3.94088         5.00122        -2.25814
O          2.14069        -1.19503        -3.18361
H          1.57417        -1.05928        -3.97299
O          3.82967        -0.62590         1.00144
O         -5.59154         3.19436        -2.83195
H         -5.35022         4.09520        -3.14792
O         -0.22156       -10.53779        -1.78462
H         -0.03763        -9.78886        -2.38839
O          5.71288        -6.33383        -1.60878
H          4.96945        -6.66859        -2.16738
O          0.98542        -5.49626         0.93070
H          0.35313        -5.03735         1.53988
O        -10.49544        -1.82789        -1.93009
H        -10.30867        -0.96351        -2.41581
O          8.23586         5.89961        -1.92164
H          7.63185         6.39469        -2.51287
O         -0.16946         1.84972         0.16253
H         -0.05681         2.41396         0.96441
O          8.26497        -5.13378         2.70163
H          7.36558        -4.75718         2.84457
O          8.90795         1.02726         1.90827
H          8.34981         1.78692         2.19930
O         -8.84341        -3.92964        -1.50243
H         -9.32250        -3.18516        -1.96590
O          8.43748         5.34617         1.68035
H          7.53150         4.99259         1.82352
O          8.20426        -5.83477        -0.86327
H          7.55318        -6.21966        -1.49749
O         -4.27433        -8.51021        -0.98793
H         -4.41338        -9.31540        -1.52956
O          3.71103         6.04947        -2.24923
H          3.33636         5.44682        -2.93800
O         -9.03941         5.28324        -1.10035
H         -8.79424         4.54381        -1.69835
O         -0.72318         7.64487         2.86318
H         -1.56854         7.09501         2.91071
O         -1.84999         6.32405        -1.92537
H         -2.47840         6.97546        -2.30149
H         12.04520        -1.15764         0.74289
H         12.11451         1.23234         0.25585
H         10.93923         3.45078         0.18916
H          9.77716         5.66209         0.14472
H          8.47968         7.94927         0.00953
H          7.27457         9.93500         0.58304
H          5.16818        11.04543         1.18200
H          2.95946        10.91125         1.84464
H          0.50913         9.88133         2.96366
H         -2.17574        10.36079         2.55562
H         -4.67816        10.34468         2.66380
H         -6.76355         9.07274         2.67223
H         -8.13463         7.11965         1.87899
H         -9.49163         5.35976         0.92320
H        -10.71789         3.07713         0.90230
H        -12.06518         1.20671         0.53021
H        -12.18758        -1.21597         0.28922
H         -9.97968        -2.58223         1.36277
H         -9.64214        -5.21942         1.31999
H         -7.31848        -7.76748        -0.22071
H         -6.68063        -9.52951         2.08409
H         -4.81809       -10.73845         1.09523
H         -2.65175       -10.78133        -0.26966
H         -0.03956       -11.00629         0.21095
H          2.32396       -11.09785         0.36044
H          4.60308       -10.83051         1.66162
H          6.60487        -9.51273         2.16024
H          8.13905        -7.73563         1.30414
H          9.59538        -5.42223         1.15835
H         10.73524        -3.42467         0.80989
