         621
 CSIRO Nanostructure Databank - Neutral Graphene Oxide Data Set
C          5.71995        31.56753        -1.06843
C          5.75368        32.92025        -0.91943
C          8.21757        27.17510        -1.59073
C          8.13217        28.63684        -1.80781
C          6.91847        29.41417        -1.42356
C          8.20526        31.51179        -1.12079
C          6.92410        30.76796        -1.22129
C          8.22481        32.98315        -1.03756
C          6.99375        33.69002        -0.84965
C          8.28611        35.75241        -0.19131
C          7.00684        35.04796        -0.56183
C          8.28798        37.23068        -0.46215
C         10.65514        22.98034        -0.74719
C         10.63644        24.39311        -0.99009
C          9.47368        25.06109        -1.37744
C         10.71521        27.19571        -1.73448
C          9.41256        26.48950        -1.56307
C         10.72519        28.66812        -1.92414
C          9.41897        29.38206        -2.00479
C         10.65233        31.61423        -1.88845
C          9.45850        30.80529        -1.52846
C         10.68696        33.02244        -1.43414
C          9.46446        33.69373        -1.07817
C         10.72194        35.79994        -0.86150
C          9.50310        35.07827        -0.77225
C         10.75289        37.22042        -0.68151
C          9.48802        37.95740        -0.57125
C         10.77282        40.16229        -0.79505
C          9.51834        39.36258        -0.57981
C         10.84184        41.47266        -0.03635
C         13.22571        18.99167         0.67666
C         13.12599        20.34100         0.36708
C         11.89028        20.94526        -0.01159
C         12.88438        23.11219         0.46057
C         11.78669        22.33057        -0.24267
C         12.70573        24.58852         0.25257
C         11.81814        25.17110        -0.60307
C         13.19889        27.42478        -0.97790
C         11.96683        26.54635        -1.17848
C         13.20967        28.77555        -1.60492
C         11.89468        29.36362        -1.99673
C         13.21651        31.49427        -1.81640
C         11.91158        30.83698        -2.13106
C         13.18413        32.95844        -1.53217
C         11.89926        33.69679        -1.40728
C         13.18047        35.78432        -1.10837
C         11.93589        35.09487        -1.13767
C         13.19297        37.15649        -0.82588
C         11.98463        37.89874        -0.67102
C         13.22001        40.03441        -0.50032
C         12.03836        39.35541        -0.58881
C         13.28062        41.55152        -0.54679
C         12.02535        42.15983         0.06328
C         13.33306        44.20755         0.63801
C         12.13343        43.47906         0.62324
C         13.38662        45.56207         1.06181
C         15.76934        14.88323         1.51642
C         15.72955        16.28512         1.45757
C         14.50442        16.95863         1.21345
C         15.70600        19.06911         1.00628
C         14.47324        18.33554         0.96643
C         15.70271        20.45785         0.52185
C         14.38367        21.11478         0.16782
C         15.63842        23.35247         0.00781
C         14.30673        22.61458         0.01422
C         15.78520        24.82549        -0.07831
C         14.65599        25.68821        -0.00519
C         15.69000        27.18021        -1.62034
C         14.52070        26.76230        -0.83081
C         15.65851        28.50549        -2.33396
C         14.47601        29.40908        -2.12705
C         15.54451        31.63639        -2.71840
C         14.45925        30.78329        -2.26837
C         15.51060        33.09434        -2.50020
C         14.40317        33.74792        -1.76701
C         15.63808        35.87072        -1.59462
C         14.41444        35.09113        -1.46595
C         15.69488        37.17051        -1.19499
C         14.48840        37.82897        -0.65485
C         15.78090        40.03938        -0.57223
C         14.49809        39.30814        -0.42434
C         15.81613        41.42979        -0.25887
C         14.53223        42.05775         0.21391
C         15.74209        44.26676         0.08809
C         14.58731        43.56276         0.24935
C         15.73285        45.75874         0.18363
C         14.56813        46.31978         0.95685
C         15.83434        48.41768         1.25517
C         14.63455        47.65239         1.37831
C         15.87667        49.77280         1.60969
C         18.30781        10.68719         1.59762
C         18.20937        12.08708         1.81210
C         17.01797        12.78948         1.57878
C         18.19928        14.93090         1.97912
C         16.98144        14.19295         1.72175
C         18.16624        16.34557         1.83867
C         16.95984        17.02839         1.57261
C         18.11559        19.25869         1.47734
C         16.92321        18.45427         1.35649
C         18.07272        20.63028         1.22136
C         16.89744        21.29261         0.74337
C         18.10916        23.41228         0.35042
C         16.89916        22.64484         0.35456
C         18.19982        24.68433        -0.23925
C         16.98453        25.37627        -0.54854
C         18.22958        27.30162        -1.47713
C         17.01602        26.65113        -1.20834
C         18.23279        28.52908        -2.29985
C         17.00472        28.99718        -2.73902
C         17.88316        31.92969        -3.50570
C         16.67797        31.19313        -3.38030
C         18.09378        33.18436        -2.95844
C         16.82874        33.86594        -2.62490
C         18.21037        35.86623        -1.98565
C         16.90265        35.15578        -1.90791
C         18.16323        37.36273        -1.93648
C         16.82094        38.05980        -1.66657
C         18.21445        39.98881        -0.59188
C         16.92958        39.35931        -0.90771
C         18.25979        41.42851        -0.33661
C         17.02378        42.12487        -0.27497
C         18.22867        44.16510         0.49643
C         17.03732        43.62728        -0.39316
C         18.29436        45.66468         0.45108
C         17.06258        46.39102         0.51444
C         18.27354        48.53785         0.71347
C         17.04474        47.75390         0.82168
C         18.31748        49.89748         1.25472
C         17.09108        50.52986         1.62456
C         18.32298        52.61483         2.06283
C         17.10768        51.88923         1.99892
C         18.34406        53.98651         2.40596
C         20.71012         6.45433         1.41949
C         20.70128         7.80769         1.79599
C         19.53932         8.57375         1.60060
C         20.64119        10.66115         2.38351
C         19.50620         9.97726         1.79843
C         20.39889        11.95506         2.83134
C         19.34844        12.80135         2.33816
C         20.63915        15.01066         2.50704
C         19.40398        14.22538         2.32277
C         20.62872        16.38559         2.39110
C         19.43978        17.09785         1.89055
C         20.60211        19.40685         2.27977
C         19.42779        18.59777         1.75043
C         20.52839        20.86557         1.93719
C         19.24915        21.45562         1.53014
C         20.57024        23.60142         0.92100
C         19.27658        22.91284         1.07877
C         20.62564        24.83217         0.20898
C         19.43381        25.41017        -0.34641
C         20.71021        27.36841        -1.05185
C         19.45512        26.69503        -0.96038
C         20.78120        28.64939        -1.83139
C         19.58215        29.19959        -2.57062
C         20.70796        31.53030        -2.59093
C         19.73291        30.65711        -2.98846
C         20.65432        32.99761        -3.01623
C         19.38934        33.81974        -2.82700
C         20.66804        35.93824        -2.37138
C         19.44223        35.17828        -2.47661
C         20.72625        37.25995        -1.91216
C         19.47644        38.04104        -1.74446
C         20.76028        40.06969        -0.87830
C         19.51681        39.30359        -0.95011
C         20.75875        41.36326        -0.30859
C         19.51073        42.07886        -0.12303
C         20.76584        44.13948         0.37015
C         19.53549        43.46351         0.21729
C         20.78076        45.56883         0.57533
C         19.55025        46.29932         0.52868
C         20.84509        48.45365         0.90345
C         19.59847        47.77194         0.52456
C         20.80522        49.86234         1.21977
C         19.55643        50.56549         1.38794
C         20.79685        52.61540         2.00465
C         19.56594        51.93019         1.81346
C         20.80198        54.00236         2.32554
C         19.56050        54.70192         2.50939
C         20.80279        56.78852         2.94020
C         19.58906        56.07515         2.85712
C         20.84127        58.09353         3.53976
C         23.09832         3.72398         0.41933
C         21.90387         4.35972         0.74909
C         23.14250         6.41657         1.13869
C         21.90959         5.72378         1.14305
C         23.19843         7.79693         1.67329
C         21.96634         8.48301         2.20651
C         23.28119        10.79058         2.81541
C         21.94322         9.96031         2.62112
C         23.27841        12.26599         2.57615
C         22.20242        13.07394         2.98580
C         23.08596        15.02149         1.92365
C         21.97701        14.37290         2.51313
C         22.96708        16.49292         1.58727
C         21.96034        17.11095         2.58109
C         23.33839        19.27450         2.63739
C         21.89533        18.65890         2.56097
C         23.38866        20.77639         2.49077
C         21.49682        21.79935         2.24935
C         23.00840        23.67301         1.38849
C         21.70684        23.04921         1.54362
C         23.02979        24.93839         0.76222
C         21.86290        25.53776         0.17041
C         23.18782        27.47576        -0.73851
C         21.87993        26.80214        -0.51212
C         23.19403        28.89171        -1.22301
C         21.86511        29.62538        -1.35838
C         23.13938        31.81284        -1.77798
C         22.03919        30.87090        -2.26110
C         23.16246        33.17952        -2.36230
C         21.93348        33.77972        -3.00371
C         23.20089        36.03365        -2.66281
C         21.90264        35.29056        -2.86552
C         23.19118        37.31296        -1.92142
C         21.95595        37.98079        -1.67621
C         23.15681        39.84244        -0.57288
C         21.96156        39.32021        -1.12807
C         23.22921        41.18516         0.08384
C         21.99279        42.01844         0.06116
C         23.25095        44.11156         0.70682
C         21.99920        43.38362         0.36763
C         23.26872        45.58935         0.70056
C         22.02993        46.28402         0.69390
C         23.33021        48.45864         0.88490
C         22.02533        47.70872         0.88179
C         23.23203        49.72596         1.69817
C         22.00288        50.53182         1.56354
C         23.28568        52.58397         2.15113
C         22.03110        51.89505         1.92022
C         23.28335        54.00180         2.31651
C         22.03761        54.70584         2.42819
C         23.27331        56.84795         2.55148
C         22.02373        56.10900         2.63275
C         23.27752        58.31338         3.16886
C         22.03588        58.74484         3.81719
C         23.37306        60.25074         5.20037
C         22.14594        59.79113         4.79626
C         24.32006         4.40522         0.46190
C         25.62521         6.47747         0.94766
C         24.36752         5.77309         0.81589
C         25.67676         7.85732         1.14307
C         24.33921         8.52475         0.99530
C         25.64597        10.72430         1.89931
C         24.65017        10.18466         2.70054
C         25.50364        12.11841         1.42603
C         24.33315        12.90384         1.89637
C         25.53141        15.06168         1.47452
C         24.26820        14.30623         1.68077
C         25.50904        16.51145         1.17540
C         24.29263        17.22344         1.50070
C         25.45960        19.35145         1.20612
C         24.31568        18.58636         1.69944
C         25.58100        20.77253         1.63417
C         24.31661        21.52309         1.82491
C         25.52961        23.64304         1.51257
C         24.30067        22.98119         1.64663
C         25.53881        25.12313         1.38009
C         24.27117        25.74931         0.84644
C         25.71867        27.64607        -0.14971
C         24.36258        27.03603         0.09604
C         25.71268        29.03937        -0.69330
C         24.39792        29.72743        -0.91070
C         25.73834        31.80306        -1.57759
C         24.42562        31.17191        -1.30626
C         25.75449        33.09098        -2.30461
C         24.49070        33.80009        -2.69510
C         25.76666        35.98879        -2.34464
C         24.51370        35.30386        -2.76500
C         25.76174        37.21459        -1.46316
C         24.36910        37.82602        -1.35512
C         26.12492        39.99411        -0.45962
C         24.22709        38.94310        -0.52102
C         25.80836        41.40431        -0.43247
C         24.57765        41.91607         0.25817
C         25.81997        44.19547         0.35123
C         24.58941        43.38836         0.57313
C         25.79937        45.55290         0.75999
C         24.52945        46.25933         0.91714
C         25.78613        48.33224         1.48742
C         24.56031        47.63810         1.17370
C         25.77150        49.68413         1.83962
C         24.50911        50.41524         2.05227
C         25.75847        52.57850         2.23433
C         24.51312        51.88129         2.16130
C         25.76067        54.00073         2.36038
C         24.52779        54.71083         2.42331
C         25.78019        56.81970         2.68760
C         24.54793        56.12717         2.54218
C         25.79570        58.32601         2.90131
C         24.56603        58.81538         3.63553
C         24.59272        59.74179         4.64324
C         26.86201         8.60501         1.33227
C         28.05770        10.72655         1.25205
C         26.87385        10.01095         1.53882
C         28.08294        12.13689         1.11101
C         26.77821        12.84413         1.09040
C         28.02978        15.04341         0.89188
C         26.81665        14.31848         1.29781
C         27.99019        16.44813         0.84747
C         26.72398        17.15978         0.94788
C         28.02642        19.35040         0.92128
C         26.73955        18.62140         0.80173
C         28.06549        20.74644         1.11642
C         26.84979        21.50074         1.49768
C         28.05647        23.63479         1.51510
C         26.83910        22.98461         1.49530
C         28.17139        25.13749         1.72189
C         26.85465        25.86382         1.33254
C         28.11192        27.83585         0.46368
C         26.93576        27.15161         0.57308
C         28.13873        29.27745         0.05488
C         26.87594        29.93746        -0.40374
C         28.21534        31.82734        -1.35330
C         26.92892        31.23393        -1.13045
C         28.25402        33.08303        -2.11176
C         27.00790        33.86962        -2.19095
C         28.25906        36.02828        -2.23649
C         27.02690        35.22664        -2.18776
C         28.20192        37.42551        -2.21281
C         26.88389        38.15233        -2.01678
C         28.29247        40.25866        -1.45810
C         27.10928        39.45260        -1.25159
C         28.29226        41.58111        -0.99647
C         27.03460        42.28336        -0.73839
C         28.23306        44.34491        -0.09860
C         27.01837        43.64017        -0.15838
C         28.24606        45.60631         0.51726
C         27.03537        46.24969         0.88476
C         28.25936        48.30527         1.51651
C         27.05872        47.63008         1.34826
C         28.31752        49.68427         2.01971
C         26.99299        50.40804         2.20044
C         28.23474        52.57847         2.22684
C         26.99214        51.87914         2.21203
C         28.21834        53.98655         2.35407
C         27.00362        54.70327         2.44720
C         26.97838        56.11745         2.63343
C         29.24872        12.87799         0.91814
C         30.45485        15.03869         0.65895
C         29.25530        14.31461         0.78252
C         30.46521        16.45825         0.70076
C         29.21828        17.16585         0.74862
C         30.46375        19.24241         1.16582
C         29.23232        18.59375         0.88377
C         30.37856        20.55769         1.66146
C         29.27531        21.39552         1.45393
C         30.67889        23.62288         1.39368
C         29.33592        22.86869         1.65544
C         30.59838        25.06195         0.98474
C         29.41538        25.75876         1.10128
C         30.63016        27.87680         0.41736
C         29.39759        27.27131         1.04925
C         30.60555        29.25099         0.03894
C         29.42475        29.95258        -0.23694
C         30.67315        31.94890        -1.10361
C         29.43799        31.25270        -0.88157
C         30.76726        33.23955        -1.72186
C         29.54267        33.86450        -2.26170
C         30.72359        36.03865        -2.67680
C         29.48572        35.33024        -2.37930
C         30.69706        37.54418        -2.83658
C         29.36312        38.30731        -2.66920
C         30.72549        40.34985        -1.85720
C         29.51451        39.61378        -1.88022
C         30.78314        41.65987        -1.31575
C         29.57652        42.24560        -0.60702
C         30.77664        44.41196        -0.35071
C         29.47474        43.76726        -0.75555
C         30.78670        45.67205         0.25178
C         29.54749        46.22460         0.82305
C         30.79630        48.44027         1.20595
C         29.56056        47.63396         1.35729
C         30.73820        49.83477         1.43642
C         29.54314        50.49390         1.81708
C         29.47166        51.87456         2.01984
C         31.69055        17.18337         0.72327
C         32.96618        19.28493         0.79677
C         31.74034        18.57537         0.96302
C         33.13094        20.70734         0.76460
C         32.17026        21.57306         1.38608
C         33.02115        23.55461         0.38434
C         31.92579        22.89591         1.00733
C         33.02201        24.98105         0.28738
C         31.82624        25.72430         0.55439
C         33.09706        27.82188         0.10638
C         31.83436        27.14097         0.36446
C         33.12381        29.19980        -0.00857
C         31.88509        29.96955        -0.00849
C         33.22462        31.91659        -1.01679
C         31.91802        31.40034        -0.54401
C         33.27081        33.21227        -1.78838
C         31.96522        33.95002        -1.79594
C         33.29804        36.09486        -2.22415
C         32.03584        35.31021        -2.36258
C         33.30854        37.51962        -2.65878
C         31.99951        38.29059        -2.78537
C         33.26982        40.52701        -2.27122
C         31.96780        39.77655        -2.46382
C         33.24613        41.80997        -1.53178
C         32.00985        42.40164        -1.20330
C         33.22597        44.43131        -0.38934
C         31.99007        43.74658        -0.65335
C         33.21196        45.76361         0.10295
C         32.00869        46.40257         0.43785
C         31.97637        47.77674         0.85478
C         34.19124        21.37016         0.11828
C         35.38752        23.47780        -0.29699
C         34.20542        22.79286         0.05363
C         35.45707        24.88725        -0.24630
C         34.25787        25.64029         0.00118
C         35.57812        27.70101        -0.11447
C         34.33134        27.06189         0.01436
C         35.67237        29.16097        -0.06095
C         34.38573        29.95409        -0.05681
C         35.67494        31.79883        -1.31405
C         34.38525        31.27824        -0.71893
C         35.71179        33.29773        -1.33293
C         34.43648        34.07640        -1.26390
C         35.73534        36.19324        -1.83223
C         34.47873        35.46967        -1.88180
C         35.78718        37.56741        -1.95916
C         34.60548        38.29367        -2.47818
C         35.84075        40.47668        -1.90012
C         34.59344        39.80293        -2.40385
C         35.72322        41.81429        -1.32160
C         34.48649        42.46070        -1.17848
C         34.44618        43.76732        -0.62608
C         36.70093        25.55985        -0.39265
C         38.05369        27.64692        -0.34060
C         36.79092        26.95716        -0.29883
C         38.14977        29.04403        -0.39959
C         36.93218        29.81783        -0.47102
C         38.19246        31.86315        -0.90416
C         36.94568        31.15559        -0.80200
C         38.22576        33.23325        -1.20037
C         36.98674        33.93344        -1.59550
C         38.26134        36.14838        -1.43539
C         37.01266        35.43393        -1.78025
C         38.21861        37.53201        -1.35199
C         37.02171        38.28446        -1.64243
C         37.02275        39.66107        -1.56869
C         39.38875        29.75679        -0.46947
C         40.64969        31.89107        -0.66485
C         39.41845        31.13911        -0.65189
C         40.66027        33.24247        -0.86702
C         39.44621        33.97962        -1.12866
C         39.44493        35.38111        -1.21918
O         18.79546        38.05957        -3.05948
O         37.11872        34.56850        -2.96321
O         21.23145        12.50673         3.81217
O         18.91388        22.56281         2.45840
O         25.87229        12.39938         0.02659
O         21.02026        19.09771         3.65545
O         19.79466        17.77119         0.59255
O         23.21360        58.06124         1.74477
O         24.19958        30.74494         0.11256
O         20.61453        28.41021        -3.25520
O         22.85882         7.74689         3.10761
O         31.44105        21.02834         2.43957
O         24.00267        27.04625         1.50513
O         25.21547        33.04887        -3.69965
O         17.23913        43.86112        -1.74562
O         12.70422        22.67599         1.78405
O         17.78334        35.20050        -0.73266
O         31.36014        37.97389        -4.06204
O         34.19249        37.78085        -3.78725
O         11.65128        26.49482        -2.61346
O         15.19755        20.51417        -0.87837
O         15.38970        46.27558        -1.25240
O         22.84077        32.97235        -0.93595
O         15.38526        27.25060        -3.06191
O         21.43209        33.24389        -4.25397
O         23.99104        43.61894         1.88239
O         13.65374        25.36876         0.90900
O         25.98934        42.04167        -1.73869
O         29.31739        43.97793        -2.21777
O         31.49763        35.38032        -3.73644
O         26.40857        14.75207         2.64775
O         24.00604        41.14682         1.33315
O         31.89385        31.13865         0.89202
O         13.32388        31.95172        -0.42785
O         15.85914        33.87932        -3.71045
O         28.99118        33.07449        -3.38317
O         27.26578        30.04841         0.99163
O         25.31178        39.18031         0.33443
O         14.88464        22.98343        -1.25805
O         25.35673        35.99588        -3.73921
O         13.12855        28.60194        -0.11071
O         35.16774        29.80591         1.17698
O         18.92566        48.40423        -0.60043
O         18.89992        31.12747        -4.00804
O         27.72113        49.82801         3.34797
O         26.42272        20.95135         2.83256
O         25.79913        19.14483        -0.20242
O         23.45004        27.80216        -2.13990
O         26.00033        27.91642        -1.57009
O          9.13828        30.90857        -0.11009
O         18.94893        39.13694         0.39549
O         11.15935        31.40067        -3.25111
O         29.71038        46.49127         2.26869
O         14.62091        38.37831         0.72409
O         22.51034        36.04404        -3.95562
O         32.51988        40.59209        -3.53897
O          8.60843        29.08142        -3.16980
O         23.68124        49.68654         3.07921
O         30.18472        23.34962         2.73440
O         35.48225        40.42465        -3.37069
O         16.87526        29.88178        -3.81471
O         22.42297        21.44098         3.23134
O         22.53413        10.24001         3.92942
O         24.06781         9.31518         0.10103
O         26.00565        25.89996         2.53735
O         28.97253        38.75333        -4.00522
H         29.80468        38.80296        -4.54121
O         10.77237        40.54662        -2.23291
H         10.68901        39.72114        -2.75750
O         33.51786        32.90127        -3.19290
H         33.27307        33.67951        -3.74106
O         26.15405        36.71258        -0.16663
H         26.01354        37.43701         0.48825
O         28.35283        25.33729         3.15401
H         27.44810        25.32531         3.55364
O         22.38346        16.61823         0.26664
H         22.99092        16.21510        -0.38773
O         17.81036        43.77480         1.83999
H         18.54601        43.96513         2.45950
O         26.38809        38.59690        -3.29594
H         27.16105        38.86153        -3.85262
O         34.12103        34.29945         0.15624
H         34.95006        34.51458         0.63255
O         22.56224        30.38084        -3.52004
H         22.37630        31.04224        -4.22279
O         29.24887        45.43161        -2.40275
H         29.27588        45.49587        -3.38830
O         22.44128        16.75844         3.89160
H         21.95241        17.30229         4.54568
O         23.81511        19.00825         3.97969
H         23.23560        19.51081         4.59266
O         14.36991        41.63006         1.59858
H         14.48957        40.65653         1.64514
O         13.36512        41.96051        -1.92494
H         12.52245        41.68832        -2.35879
O         26.99197        58.73164         3.55918
H         27.03361        58.29131         4.43230
O         16.31310        38.47404        -2.98005
H         17.09401        38.74095        -3.52190
O         21.46266        30.06113        -0.04788
H         22.21914        30.55041         0.35953
O         29.46577        27.71507         2.44187
H         29.07356        26.99754         3.00510
O          8.39062        35.59511         1.29169
H          8.61409        34.65707         1.47506
O         24.92725         9.16273         3.53291
H         24.09151         8.90939         4.00404
O         29.77219        42.01708         0.83132
H         29.80700        41.04943         0.98290
O         16.59607        46.39534        -1.99340
H         16.89225        45.42584        -2.11084
O         35.68182        31.38082        -2.72820
H         34.97612        31.89968        -3.19650
O         23.52389        48.94288        -0.49742
H         23.37054        48.19003        -1.10713
H          4.75049        31.04819        -1.09898
H          4.80927        33.47480        -0.81496
H          7.27928        26.62404        -1.42186
H          5.95706        28.87598        -1.42231
H          6.05448        35.57056        -0.38319
H          7.33008        37.77218        -0.44840
H          9.73560        22.40233        -0.93108
H          8.54389        24.48342        -1.49396
H          8.56524        39.91261        -0.53190
H          9.91104        41.90284         0.36563
H         12.30715        18.38745         0.73595
H         11.04503        20.28200        -0.26398
H         11.21240        43.96813         0.97985
H         12.48083        46.03516         1.47279
H         14.84652        14.30837         1.35058
H         13.57441        16.37341         1.16367
H         13.75050        48.12243         1.83599
H         14.94710        50.27071         1.92373
H         17.42105        10.14305         1.24222
H         16.11460        12.25207         1.25685
H         16.16297        52.39552         2.24476
H         17.39416        54.51023         2.58867
H         19.74554         5.97616         1.19025
H         18.63105         8.07288         1.23493
H         18.64427        56.59123         3.08434
H         19.90790        58.48541         3.97179
H         23.08434         2.66362         0.13042
H         20.95457         3.80656         0.72095
H         23.43600        61.02645         5.97596
H         21.22651        60.18427         5.25316
H         25.25304         3.87487         0.22441
H         26.55867         5.89491         0.90737
H         25.79865        58.81837         1.88929
H         25.55521        60.13794         4.99718
H         27.82751         8.08689         1.21416
H         28.98163        10.15898         1.06107
H         29.17044        54.53663         2.37999
H         27.92624        56.66403         2.74661
H         30.21768        12.35609         0.91165
H         31.41205        14.49775         0.62236
H         31.65458        50.43141         1.31207
H         30.39279        52.47061         1.93422
H         32.63145        16.63156         0.57716
H         33.82398        18.68726         0.44782
H         34.16725        46.29116         0.23984
H         32.91900        48.34428         0.83151
H         35.03516        20.80104        -0.29702
H         36.29714        22.89985        -0.51667
H         36.63424        42.31368        -0.96076
H         35.39297        44.27449        -0.38917
H         37.61271        24.96339        -0.54487
H         38.97396        27.04368        -0.36416
H         39.13245        38.09125        -1.10172
H         37.94001        40.18704        -1.26453
H         40.33323        29.20071        -0.36997
H         41.59271        31.35481        -0.48256
H         41.61070        33.79548        -0.84021
H         40.39282        35.92034        -1.07076
