         276
 CSIRO Nanostructure Databank - Neutral Graphene Oxide Data Set
C        -11.11294         0.62835         0.74545
C        -10.06339         1.62117         0.41990
C         -8.79768         1.06109        -0.18825
C         -7.57524         1.64837         0.44587
C         -6.31822         0.86406         0.59528
C         -5.03698         1.58774         0.89885
C         -3.91021         0.70809         1.44935
C         -2.60436         1.49049         1.75624
C         -1.30646         0.73032         1.74824
C         -0.00224         1.43870         1.47934
C          1.28647         0.71137         1.71257
C          2.47760         1.52090         2.26348
C          3.83179         0.73546         2.12213
C          5.11678         1.49421         1.78375
C          6.26558         0.72263         1.18412
C          7.58281         1.44904         1.05918
C          8.80075         0.68836         0.60683
C          9.96648         1.42200        -0.01205
C         10.90412         0.60559        -0.82835
C        -10.01524         2.92651         1.11118
C         -8.90090         3.75258         0.99352
C         -7.57717         3.15635         0.53909
C         -6.46597         3.75756         1.38967
C         -5.12758         3.04019         1.18937
C         -3.91157         3.75454         1.67907
C         -2.62200         3.00983         1.76276
C         -1.33510         3.72743         1.44796
C         -0.04996         2.95134         1.38465
C          1.21553         3.73622         1.58526
C          2.53332         3.00158         1.79403
C          3.80714         3.71629         1.42491
C          5.11465         2.96148         1.45678
C          6.33002         3.76218         0.97568
C          7.62099         2.94725         0.93830
C          8.75885         3.58098         0.21626
C          9.81499         2.87186        -0.24590
C         -8.90414         5.15728         1.18596
C         -7.73153         5.92502         0.89009
C         -6.42932         5.15177         0.73901
C         -5.22716         5.96689         1.17180
C         -3.95153         5.24398         1.47414
C         -2.64219         5.94065         1.24397
C         -1.32951         5.24583         1.45297
C         -0.06879         5.97984         0.91481
C          1.22233         5.18571         1.16771
C          2.49094         5.80369         0.59500
C          3.77740         5.01232         0.62597
C          4.68238         5.00887        -0.61508
C          6.17669         4.46253        -0.41126
C          7.29424         5.50687        -0.47527
C          8.66995         5.07543         0.00112
C         -7.70365         7.26980         0.56769
C         -6.43601         7.82636        -0.05208
C         -5.21632         7.46832         0.83168
C         -3.97723         7.80528         0.01941
C         -2.72706         7.01804         0.19945
C         -1.53505         7.33908        -0.65864
C         -0.25750         6.58827        -0.46850
C          0.99019         7.00840        -1.21087
C          2.30434         6.97273        -0.39883
C          3.28054         6.96116        -1.60055
C          4.64808         6.33773        -1.40146
C          5.87119         7.19593        -1.57931
C          7.14163         6.74331        -0.98442
C         -6.35657         9.29739        -0.42245
C         -5.18260         9.85913        -0.76775
C         -3.82994         9.24355        -0.44368
C         -2.71873         9.37368        -1.47075
C         -1.64603         8.54853        -1.51330
C         -0.51365         8.74538        -2.50500
C          0.84338         8.28857        -2.00564
C          1.99322         8.89703        -2.46704
C          3.27456         8.35654        -2.17414
C          4.46863         9.09493        -2.35330
C          5.69328         8.59761        -1.97235
C        -10.84998        -0.70300         0.75843
C         -9.63255        -1.28958         0.21244
C         -8.78940        -0.39850        -0.66275
C         -7.37751        -0.97344        -0.86285
C         -6.15825        -0.37759        -0.23647
C         -4.87337        -1.16403        -0.07678
C         -3.64757        -0.41971         0.41885
C         -2.33667        -1.14438         0.41532
C         -1.40992        -0.80934         1.59016
C         -0.03543        -1.53217         1.61411
C          1.17861        -0.74372         2.19764
C          2.51108        -1.55802         2.08636
C          3.82698        -0.78070         2.11153
C          5.12019        -1.53870         1.77236
C          6.22986        -0.77380         1.09770
C          7.47286        -1.52965         0.65674
C          8.70887        -0.77363         0.31306
C         10.05536        -1.50795         0.22506
C         10.97323        -0.72962        -0.69843
C         -9.32837        -2.61751         0.33775
C         -8.26393        -3.26585        -0.41557
C         -7.37675        -2.42515        -1.31385
C         -5.96047        -3.04385        -1.49441
C         -4.73850        -2.46470        -0.81196
C         -3.36710        -3.07538        -1.07620
C         -2.20113        -2.47380        -0.31773
C         -1.14339        -3.42546         0.19688
C          0.06068        -2.89980         0.99026
C          1.42690        -3.57164         0.76694
C          2.54386        -3.01431         1.67611
C          3.86402        -3.80040         1.63755
C          5.17402        -3.03982         1.69883
C          6.45556        -3.80008         1.35321
C          7.74412        -2.96568         1.13006
C          8.73647        -3.63664         0.16145
C          9.80219        -2.91744        -0.26890
C         -8.17119        -4.61445        -0.51669
C         -7.26488        -5.29971        -1.53025
C         -5.94197        -4.52215        -1.72583
C         -4.63603        -5.28416        -1.81895
C         -3.30324        -4.47092        -1.78107
C         -2.08891        -5.36455        -1.34448
C         -1.09918        -4.83308        -0.32612
C          0.13247        -5.68492        -0.00425
C          1.28804        -5.10856         0.78147
C          2.54819        -5.94305         0.89035
C          3.84942        -5.24480         1.21856
C          5.11839        -5.98860         0.88333
C          6.42398        -5.24658         0.96857
C          7.58671        -5.83288         0.24444
C          8.62697        -5.05397        -0.13727
C         -7.04284        -6.71723        -1.08735
C         -6.00324        -7.55037        -1.77139
C         -4.66954        -6.78497        -1.91491
C         -3.38553        -7.57688        -1.88092
C         -2.11317        -6.86990        -1.48238
C         -1.01072        -7.72331        -0.84611
C          0.33685        -6.97925        -0.84969
C          1.18338        -7.97497        -0.06632
C          2.50859        -7.36472         0.41086
C          3.75363        -7.84909        -0.37980
C          5.07367        -7.31696         0.21371
C          6.28319        -7.83068        -0.58125
C          7.60659        -7.33170         0.04997
C         -5.85925        -8.94165        -1.20892
C         -4.73243        -9.66029        -1.31444
C         -3.45197        -9.06654        -1.76651
C         -2.18374        -9.80478        -1.57175
C         -1.00859        -9.15437        -1.35898
C          0.24769        -9.86411        -1.34351
C          1.36001        -9.29842        -0.78843
C          2.61818       -10.00482        -0.77094
C          3.79402        -9.35685        -0.53109
C          5.07893       -10.02499        -0.61480
C          6.24400        -9.34331        -0.63986
O          2.34237        -2.64641         3.05582
O          0.20808        -5.75901         1.45487
O          4.03905        -0.03716         3.33951
O         -1.13012        -7.90143         0.61726
O         -6.30161         4.76070        -0.66534
O          6.43346         3.51903        -1.39491
O         -1.22944         6.05765        -1.37546
O          3.59964         6.16799         1.48632
O         -4.77731         2.54718        -0.15655
O         -4.81472         5.78897         2.55773
O          3.28839         3.80091         2.76459
O          9.96481         1.01964         1.40131
O          5.19220        -7.28508         1.63212
O         -2.35934        -2.24745        -1.73144
O         -6.49371        -0.12899        -1.64800
O         -1.91387         6.05130         2.50810
O         -0.77157         3.31949         0.15962
O          7.89963         2.29289         2.20839
O          5.74573         0.05605        -0.01179
O          0.26892        -8.26795         1.06525
O         -7.27808         3.65404        -0.81558
O         -5.86764        -3.55406        -2.83858
O          1.13928         4.81621         2.57407
O          0.81554         0.90790         0.36656
O         -0.21345        -2.76051         2.39559
O         -8.00651        -2.46489        -2.62007
O          1.22434         5.97481        -2.23180
O         -3.73657         6.69168        -0.85713
O          8.44502        -2.87354         2.33570
O         -1.93510         1.10250         3.00082
O          5.36612         6.27620        -2.64511
O          2.61474         6.12023        -2.61925
O         -2.60511        -0.05966        -0.51938
O         -4.69692        -5.97946        -3.12653
O          2.50331        -7.11123         1.80820
O          5.41599         2.46302         2.81037
O          6.70380        -4.83417         2.34351
O         -9.63811         1.88590        -0.99947
O          7.79209        -1.21625        -0.73549
O         -1.82345        -4.51145         0.90384
O         -1.52906        -6.00855        -2.51911
O         -3.33029         3.44316         2.97286
O          5.45475        -2.32721         2.94232
O          3.82440        -4.85617         2.63116
O         -7.29083         0.88335         1.67546
O         -5.04223        -2.43082         0.63613
O         -3.37554        -8.40332        -3.09014
O          3.64980        -7.24576        -1.63928
O         -9.41560        -0.33769        -2.02185
H         -7.53352        -1.82400        -3.19628
O         -6.25348         7.13275        -1.30942
H         -7.09613         7.14346        -1.80746
O         10.64937        -1.60933         1.52713
H          9.98889        -2.09612         2.10066
O         -7.96810        -5.30293        -2.80505
H         -7.96929        -4.36175        -3.11320
O          0.93064        -6.68130        -2.09427
H          0.23275        -6.40706        -2.73394
O          1.91477        -3.22904        -0.55638
H          1.41734        -3.71955        -1.24547
O         -3.04012        -4.09906        -3.13462
H         -3.27212        -4.86541        -3.70806
O          6.47527         4.81250         1.95835
H          6.43025         4.37858         2.84135
O          6.19787        -7.27987        -1.89564
H          5.22707        -7.30643        -2.16768
O         -3.36812         9.97311         0.73509
H         -4.02434         9.79985         1.45129
O         -6.80138         3.78269         2.76696
H         -6.08422         4.25309         3.25068
O          2.43937         8.19065         0.33120
H          2.93441         7.99772         1.15928
O         -2.13456        -1.29954         2.73475
H         -1.52610        -1.29156         3.50678
O          4.03631         4.03495        -1.44035
H          4.80079         3.57613        -1.91001
O         -5.26753         8.25038         2.03094
H         -4.97420         7.66649         2.77220
O          8.97719         5.76067         1.22539
H          8.26062         5.53620         1.86582
O          2.18342         1.61308         3.65931
H          2.89968         2.13500         4.08377
O         -4.43594         0.14436         2.64584
H         -3.70159        -0.35729         3.08293
O          0.86970        -0.63559         3.59199
H          1.13892        -1.48219         4.01881
O         -0.45417        10.08880        -2.96901
H         -0.39532        10.68706        -2.19612
O          0.11951         7.16281         1.72250
H          0.25005         6.86993         2.65213
O          7.81315        -7.97920         1.30049
H          7.10860        -7.68183         1.92376
O         -6.58123        -7.72394        -3.09171
H         -6.47570        -6.86462        -3.56684
O        -10.42265        -1.36589        -2.13656
H         -9.90100        -2.12595        -2.51135
H         11.70687        -1.29924        -1.28989
H         11.57352         1.13353        -1.52494
H         10.59760         3.38420        -0.82809
H          9.43857         5.39019        -0.74974
H          7.99978         7.43210        -1.02445
H          6.58078         9.24705        -2.00266
H          4.39125        10.12860        -2.72143
H          1.91289         9.83355        -3.04026
H         -0.74027         8.10114        -3.40221
H         -2.74039        10.24393        -2.14628
H         -5.16842        10.89958        -1.12981
H         -7.29494         9.85148        -0.58691
H         -8.62760         7.86939         0.59208
H         -9.85157         5.67540         1.39930
H        -10.94769         3.32054         1.54631
H        -12.06704         0.99919         1.14979
H        -11.60931        -1.39808         1.14735
H         -9.98286        -3.26734         0.93894
H         -8.86385        -5.25049         0.05618
H         -7.94007        -7.24638        -0.72319
H         -6.77585        -9.41250        -0.82311
H         -4.70547       -10.69989        -0.95545
H         -2.18264       -10.88237        -1.79383
H          0.29235       -10.86553        -1.79510
H          2.61422       -11.07480        -1.03135
H          5.07763       -11.12316        -0.69584
H          7.19848        -9.88036        -0.74041
H          8.45128        -7.61664        -0.62445
H          9.47524        -5.51399        -0.66930
H         10.54664        -3.39034        -0.92994
