         204
 CSIRO Nanostructure Databank - Neutral Graphene Oxide Data Set
C        -11.14558         0.66630         0.12473
C         -9.91288         1.40626         0.05942
C         -8.69124         0.68621        -0.19647
C         -7.43877         1.39451        -0.25175
C         -6.20862         0.69333        -0.47260
C         -4.97113         1.39819        -0.46143
C         -3.74127         0.70027        -0.72656
C         -2.53598         1.42544        -0.75430
C         -1.29637         0.76832        -1.17377
C         -0.02056         1.46942        -1.00910
C          1.22567         0.70341        -1.25498
C          2.53332         1.44004        -1.08655
C          3.75680         0.66907        -0.79811
C          4.97110         1.41366        -0.53539
C          6.25129         0.73480        -0.52954
C          7.45034         1.39388        -0.38886
C          8.75083         0.71071        -0.76088
C          9.97518         1.45154        -0.26772
C         11.18814         0.68198        -0.12316
C         -9.88373         2.79017         0.22111
C         -8.65826         3.51345         0.17724
C         -7.42678         2.79721        -0.04178
C         -6.18922         3.50781        -0.03095
C         -4.95935         2.80268        -0.22154
C         -3.71918         3.51547        -0.14708
C         -2.47778         2.81252        -0.40104
C         -1.24296         3.49743        -0.43155
C         -0.01604         2.82858        -0.75859
C          1.23875         3.63904        -1.04047
C          2.51280         2.87828        -0.77929
C          3.69370         3.54256        -0.50744
C          4.92979         2.80447        -0.38970
C          6.13908         3.53658         0.00893
C          7.46667         2.79272         0.03193
C          8.72324         3.57179        -0.00915
C          9.95056         2.80829        -0.04579
C         -8.63550         4.90831         0.35645
C         -7.41943         5.63110         0.34986
C         -6.18767         4.91808         0.16860
C         -4.95367         5.62833         0.20578
C         -3.73329         4.90261         0.08850
C         -2.47413         5.63061         0.27635
C         -1.17659         4.89608         0.01198
C          0.06862         5.68122        -0.15957
C          1.25460         5.02037        -0.43193
C          2.50193         5.70324        -0.28075
C          3.71443         4.98659        -0.32421
C          4.96102         5.68085        -0.20403
C          6.17624         5.00557        -0.09797
C          7.42838         5.69568         0.10606
C          8.66904         4.93841         0.14166
C         -7.38462         7.03918         0.52788
C         -6.17340         7.74408         0.53933
C         -4.94198         7.04202         0.39414
C         -3.69456         7.77093         0.35781
C         -2.49560         7.09672         0.24118
C         -1.23900         7.85058        -0.09831
C          0.04978         7.09150         0.12324
C          1.23850         7.78766         0.27515
C          2.50080         7.09789         0.11193
C          3.69055         7.80798         0.19421
C          4.93930         7.15144        -0.19905
C          6.26787         7.89780         0.02028
C          7.44327         7.07985         0.27458
C         -6.14031         9.18453         0.68708
C         -4.96931         9.88266         0.66973
C         -3.69573         9.22416         0.50427
C         -2.49850         9.91761         0.58792
C         -1.22837         9.26644         0.42680
C         -0.03011         9.92269         0.58447
C          1.24625         9.23601         0.51003
C          2.43252         9.89746         0.70829
C          3.71207         9.13043         0.91529
C          4.99729         9.90473         0.74495
C          6.17045         9.31533         0.46552
C        -11.16302        -0.69382        -0.00394
C         -9.95199        -1.43636        -0.23678
C         -8.73510        -0.70292        -0.39878
C         -7.50811        -1.40812        -0.78232
C         -6.20764        -0.72189        -0.69139
C         -5.01517        -1.44884        -0.81960
C         -3.74271        -0.74505        -0.88964
C         -2.55132        -1.45696        -1.02363
C         -1.28676        -0.77124        -1.30114
C          0.00987        -1.46657        -1.10320
C          1.20433        -0.77836        -1.06576
C          2.47131        -1.46996        -0.84988
C          3.70337        -0.72349        -0.78433
C          4.97418        -1.48055        -0.70512
C          6.27708        -0.73420        -0.69788
C          7.53377        -1.39944        -0.27288
C          8.72821        -0.74246        -0.32998
C          9.96921        -1.45633        -0.07459
C         11.19184        -0.68470        -0.06212
C         -9.95153        -2.84449        -0.16762
C         -8.76171        -3.60254        -0.22715
C         -7.52342        -2.94217        -0.68030
C         -6.23625        -3.60796        -0.48055
C         -5.02198        -2.89858        -0.71831
C         -3.80277        -3.61196        -0.68188
C         -2.55791        -2.96121        -1.21732
C         -1.27809        -3.63173        -0.78693
C          0.02009        -2.97971        -1.19582
C          1.24083        -3.59517        -0.55404
C          2.46337        -2.85894        -0.55693
C          3.69886        -3.55166        -0.16702
C          4.92995        -2.85951        -0.22584
C          6.15575        -3.49272         0.28181
C          7.47933        -2.77431         0.24536
C          8.72672        -3.56916         0.23907
C          9.95477        -2.83281         0.11814
C         -8.70074        -4.95704         0.13083
C         -7.47352        -5.66576         0.15654
C         -6.23269        -4.96847        -0.11178
C         -4.99504        -5.66370        -0.01506
C         -3.77477        -4.97415        -0.30474
C         -2.52895        -5.66640        -0.17078
C         -1.28419        -4.95178        -0.36777
C         -0.04105        -5.64090        -0.08310
C          1.17996        -4.91450        -0.09452
C          2.36202        -5.54710         0.59121
C          3.66443        -4.88360         0.26862
C          4.88953        -5.58645         0.79525
C          6.18491        -4.94750         0.40618
C          7.38994        -5.64628         0.47549
C          8.65233        -4.94596         0.36880
C         -7.42854        -7.04183         0.47808
C         -6.21536        -7.74348         0.53512
C         -4.97921        -7.05052         0.29958
C         -3.74405        -7.74785         0.36036
C         -2.51515        -7.04148         0.16088
C         -1.27127        -7.74442         0.28488
C         -0.04745        -7.03201         0.21354
C          1.20145        -7.74809         0.36114
C          2.40638        -7.05312         0.43249
C          3.65250        -7.75675         0.49812
C          4.87464        -7.07265         0.57584
C          6.12276        -7.77349         0.56868
C          7.34017        -7.07920         0.58041
C         -6.16732        -9.15091         0.81764
C         -4.97732        -9.82746         0.85286
C         -3.72726        -9.15343         0.63032
C         -2.50335        -9.84158         0.66098
C         -1.27268        -9.16411         0.49438
C         -0.03626        -9.86692         0.51576
C          1.18690        -9.19333         0.43351
C          2.43291        -9.88902         0.45845
C          3.64198        -9.20468         0.46534
C          4.90676        -9.89703         0.48762
C          6.08844        -9.21724         0.52830
O          2.13445        -5.31638         2.03427
H          3.01285        -5.45446         2.47491
O          5.78904        -1.28144        -1.97645
O         -1.35617         0.09282        -2.48491
O         -7.65182        -2.25614        -1.96613
O          4.84226        -5.40731         2.29269
H          5.24600        -4.53016         2.48444
O         -2.62649        -3.14354        -2.67916
H         -1.70364        -3.05452        -3.02561
O         -1.30896         7.99395        -1.57117
H         -0.52276         8.51088        -1.85085
O          8.83581         0.73335        -2.22133
H          8.07705         0.21780        -2.57093
O          6.71298         3.03256         1.27296
O         -1.66860         5.07621         1.40145
O          1.20718         3.85820        -2.49409
H          1.38342         2.97697        -2.90828
O          3.71416         8.77298         2.35690
H          2.86046         8.32750         2.54740
O          0.14111        -3.24446        -2.66047
H          0.90629        -2.72271        -2.98815
O          5.67579         7.75048        -1.32271
O          6.71046        -2.82142         1.51959
O          1.96763         1.14210        -2.45410
H         12.14185        -1.22125         0.07911
H         12.13491         1.23078        -0.00176
H         10.89067         3.33138         0.19290
H          9.60830         5.50986         0.19870
H          8.35475         7.56795         0.65207
H          7.09867         9.90905         0.46808
H          4.97659        10.96983         1.02381
H          2.42629        10.97941         0.91259
H         -0.02509        10.99265         0.84538
H         -2.51128        10.99305         0.82416
H         -4.97843        10.97680         0.78462
H         -7.09622         9.71494         0.81012
H         -8.33130         7.58642         0.65049
H         -9.58181         5.44681         0.51476
H        -10.82136         3.33814         0.39799
H        -12.07957         1.21903         0.30310
H        -12.10967        -1.24704         0.08197
H        -10.89529        -3.35988         0.06719
H         -9.62530        -5.48067         0.41733
H         -8.37060        -7.57589         0.67371
H         -7.11246        -9.68458         0.99580
H         -4.96142       -10.90745         1.06086
H         -2.49801       -10.92789         0.83675
H         -0.04662       -10.96246         0.61833
H          2.42862       -10.98932         0.48050
H          4.90060       -10.99692         0.46684
H          7.04295        -9.76391         0.53560
H          8.28344        -7.64496         0.59748
H          9.57915        -5.53914         0.38781
H         10.90723        -3.37499         0.22090
