         732
 CSIRO Nanostructure Databank - Neutral Graphene Oxide Data Set
C         23.48322        24.97036        -2.13514
C         22.30570        25.69410        -2.28993
C         23.29612        27.62039        -1.17727
C         22.20418        27.00698        -1.82192
C         23.20904        29.00517        -0.66552
C         21.96548        29.67432        -0.55835
C         23.07703        31.74785         0.10096
C         21.90571        31.00488        -0.18509
C         23.03819        33.16754         0.36947
C         21.81706        33.88446         0.40409
C         22.99488        35.99916         0.70617
C         21.79537        35.25447         0.56061
C         22.98567        37.45908         0.64868
C         21.75781        38.14829         0.49037
C         22.93300        40.23833         0.06527
C         21.73668        39.49631         0.21699
C         22.85950        41.61904        -0.34474
C         21.64499        42.30042        -0.62464
C         22.85602        44.38017        -1.08345
C         21.64353        43.64644        -0.92417
C         22.84309        45.83342        -1.19943
C         21.69506        46.57643        -0.93888
C         22.95441        48.66884        -0.80861
C         21.74179        47.97463        -0.78949
C         25.87962        23.39517        -1.38077
C         25.85045        24.80952        -1.36100
C         24.61192        25.55700        -1.51181
C         25.60456        27.51567        -0.22662
C         24.49877        26.89474        -1.04609
C         25.69904        29.02751        -0.48983
C         24.37053        29.70542        -0.30384
C         25.54363        31.79783         0.38974
C         24.33468        31.07803         0.06815
C         25.50906        33.17762         0.64702
C         24.24984        33.88376         0.57840
C         25.45977        36.02045         1.04134
C         24.21192        35.29141         0.76151
C         25.45615        37.53773         0.96034
C         24.18700        38.20469         0.61412
C         25.43140        40.35666         0.32155
C         24.19057        39.59488         0.31068
C         25.29560        41.72393        -0.01994
C         24.07300        42.33271        -0.48858
C         25.37293        44.27931        -1.49325
C         24.07520        43.68110        -0.96322
C         25.40368        45.81665        -1.52126
C         24.10437        46.57816        -1.41301
C         25.44077        48.69329        -1.06986
C         24.16432        48.01623        -1.08278
C         25.49282        50.10956        -0.88534
C         28.36364        23.29805        -1.06015
C         27.04220        22.67561        -1.24385
C         28.48115        24.83177        -1.14708
C         27.11091        25.54098        -1.16991
C         28.10372        27.45476         0.23795
C         26.96811        26.91220        -0.55076
C         28.01987        28.92612         0.61631
C         26.82485        29.69305         0.26680
C         28.00502        31.73979         0.88036
C         26.80801        31.06807         0.48924
C         27.95618        33.16060         1.36004
C         26.72661        33.91027         0.91866
C         27.97413        36.04864         0.97676
C         26.74176        35.29424         0.96407
C         27.96152        37.46995         0.79006
C         26.73727        38.24164         0.73472
C         28.02788        40.26056         0.42754
C         26.71941        39.63909         0.54874
C         28.21758        41.65808         0.42655
C         26.35958        42.69276         0.10215
C         27.87167        44.38124        -0.97930
C         26.53947        43.77995        -0.69085
C         27.87188        45.84912        -1.12969
C         26.68009        46.53679        -1.23562
C         27.92228        48.68322        -0.99283
C         26.66979        47.98521        -1.15712
C         27.92871        50.08752        -0.73222
C         26.68014        50.77545        -0.71301
C         30.22304        20.40870         0.66102
C         29.28126        21.08969        -0.00185
C         30.60262        23.23348         0.24058
C         29.47303        22.50570        -0.40159
C         30.62396        24.66708         0.26236
C         29.48786        25.42892        -0.15046
C         30.51214        27.45533         0.84848
C         29.41464        26.77573         0.22740
C         30.46825        28.90247         1.07048
C         29.27583        29.63021         0.85958
C         30.46405        31.76197         1.18461
C         29.23994        31.04616         0.96869
C         30.46009        33.20623         1.19211
C         29.25133        33.90988         1.16252
C         30.45228        36.04503         0.98028
C         29.22178        35.34777         1.05677
C         30.45978        37.41000         0.65419
C         29.21726        38.11320         0.55465
C         30.47788        40.18693         0.06837
C         29.23424        39.51220         0.30535
C         30.49037        41.56412        -0.27189
C         29.28965        42.30278        -0.18621
C         30.46774        44.41065        -0.90245
C         29.18590        43.66796        -0.76763
C         30.44015        45.81551        -1.12540
C         29.16328        46.54232        -1.48343
C         30.38188        48.66409        -0.86743
C         29.16552        47.99266        -1.08199
C         30.37809        50.04527        -0.53161
C         29.17089        50.76697        -0.49643
C         30.36872        52.88618        -0.14133
C         29.21352        52.20553        -0.32810
C         32.80038        19.02114         0.35366
C         32.76175        20.31594         0.86492
C         31.47440        21.04479         1.19163
C         32.81422        23.15644         1.31137
C         31.61724        22.51026         0.85266
C         32.83391        24.55557         1.37649
C         31.71823        25.32055         0.91137
C         32.82194        27.40607         1.76211
C         31.67975        26.72983         1.11749
C         32.81332        28.89563         1.92044
C         31.63912        29.62729         1.41473
C         32.93553        31.75062         1.50159
C         31.66075        31.04443         1.38350
C         32.92656        33.20118         1.37838
C         31.73562        33.88650         1.26825
C         32.99243        36.02174         0.89687
C         31.73061        35.38701         1.44689
C         32.95583        37.38662         0.49159
C         31.71726        38.09600         0.43854
C         32.95600        40.17958        -0.05254
C         31.71606        39.47384         0.12638
C         32.92838        41.59734        -0.30722
C         31.72398        42.27335        -0.47701
C         32.90203        44.31549        -1.26564
C         31.66728        43.68472        -0.82043
C         32.89093        45.87583        -1.45525
C         31.63278        46.56024        -1.18518
C         32.89583        48.66061        -0.92054
C         31.65804        47.97190        -0.99008
C         32.93757        50.05167        -0.58629
C         31.66148        50.68972        -0.19174
C         32.93276        52.91107        -0.10050
C         31.65275        52.19265         0.04783
C         32.93625        54.31569         0.01408
C         35.19919        18.80702         0.76914
C         34.01152        18.31351         0.22851
C         35.16623        20.13554         1.38608
C         33.96404        20.96402         1.26189
C         35.28060        23.00647         1.71262
C         34.01570        22.35537         1.54945
C         35.32005        24.45229         2.00455
C         34.01843        25.24138         1.92519
C         35.32915        27.36723         1.90861
C         34.11120        26.69920         1.82283
C         35.36873        28.82203         1.78250
C         34.13165        29.62267         2.18689
C         35.42418        31.72148         1.58308
C         34.10870        31.05082         1.69030
C         35.48459        33.20915         1.46155
C         34.19855        34.00174         1.67004
C         35.42674        35.95242         0.52283
C         34.20170        35.33738         0.95675
C         35.42557        37.31932         0.19413
C         34.18951        38.06164         0.23092
C         35.49224        40.18894        -0.00738
C         34.17269        39.46263         0.02243
C         35.35848        41.50305        -0.79476
C         34.22179        42.36981        -0.23886
C         35.36592        44.37038        -1.15780
C         34.19165        43.69706        -0.96347
C         35.38413        45.77941        -1.72792
C         34.15263        46.58386        -1.37600
C         35.37052        48.73026        -1.23791
C         34.15600        47.97057        -1.15217
C         35.39548        50.12497        -0.92955
C         34.14400        50.77520        -0.56875
C         35.37573        52.93470        -0.32433
C         34.14815        52.20519        -0.30633
C         35.36393        54.34327        -0.07206
C         34.11992        55.01724         0.04454
C         37.63442        16.02410         0.13525
C         36.45801        16.71959         0.33469
C         37.70714        18.74399         0.92207
C         36.45112        18.08625         0.70391
C         37.75668        20.15572         1.21876
C         36.52991        20.86955         1.58372
C         37.75222        23.05245         1.50623
C         36.50826        22.33334         1.59168
C         37.78815        24.47165         1.63848
C         36.57456        25.21356         1.85570
C         37.85110        27.36962         2.06272
C         36.56047        26.61042         1.89820
C         37.81165        28.77734         1.51201
C         36.56301        29.46876         1.47671
C         37.83959        31.62296         0.95807
C         36.51949        30.89182         0.94245
C         37.84642        33.03257         0.71046
C         36.65989        33.82747         0.79345
C         37.86742        35.79435        -0.11058
C         36.66176        35.17977         0.41627
C         37.87133        37.19443        -0.46406
C         36.65404        37.97586        -0.25572
C         37.79328        40.03159        -1.15625
C         36.63687        39.33732        -0.49070
C         37.84043        41.53584        -0.93388
C         36.65415        42.26666        -0.85352
C         37.85276        44.38822        -1.16459
C         36.63294        43.67931        -0.99646
C         37.84714        45.85693        -1.29974
C         36.65208        46.52127        -1.39590
C         37.90669        48.75255        -1.66608
C         36.60182        47.98818        -1.59970
C         37.81276        50.28570        -1.68247
C         36.61230        50.87617        -0.94260
C         37.82593        53.05646        -0.63372
C         36.62783        52.27992        -0.63044
C         37.84008        54.43385        -0.19051
C         36.58158        55.07188         0.07766
C         37.68583        57.17532         0.68654
C         36.56605        56.42152         0.58162
C         40.15074        14.56354        -0.16935
C         40.14402        15.94682         0.06000
C         38.88963        16.66205         0.29059
C         40.21273        18.66418         0.91130
C         38.90874        18.01318         0.68993
C         40.22224        20.16126         1.15533
C         38.94672        20.89462         1.19145
C         40.22729        23.01588         1.28487
C         38.96721        22.31940         1.31395
C         40.25477        24.44313         1.39722
C         39.04097        25.17673         1.55326
C         40.28351        27.31350         1.48531
C         39.06704        26.59548         1.61905
C         40.27746        28.74951         1.40160
C         39.02376        29.45747         1.30316
C         40.28483        31.57399         0.92359
C         39.03073        30.88594         1.04141
C         40.28703        32.94504         0.55114
C         39.07395        33.68400         0.36933
C         40.32036        35.57860        -0.70273
C         39.06719        35.02566        -0.12760
C         40.33608        37.13162        -1.05648
C         39.07777        37.88743        -0.80458
C         40.30550        40.05861        -1.07965
C         39.09875        39.30140        -0.94688
C         40.27392        41.46646        -1.19959
C         39.06450        42.23628        -1.09603
C         40.31337        44.42431        -1.51551
C         39.05031        43.66420        -1.19047
C         40.30793        45.87374        -1.08902
C         39.10922        46.60310        -1.21499
C         40.35024        48.73583        -1.01792
C         39.13100        48.02977        -1.26804
C         40.37339        50.19522        -0.98991
C         39.15497        50.97078        -1.36513
C         40.39764        53.11449        -0.60825
C         39.11757        52.42887        -0.99827
C         40.35262        54.56078        -0.12095
C         39.02596        55.17226         0.03370
C         40.14921        57.19103         1.10692
C         39.01807        56.67221         0.21724
C         40.28636        58.64542         1.25606
C         42.54581        14.57499        -0.51389
C         41.34235        13.88435        -0.43855
C         42.59306        15.96751        -0.29146
C         41.38748        16.65967         0.03168
C         42.62717        18.80056         0.24491
C         41.43951        18.04782         0.37044
C         42.64391        20.21388         0.52322
C         41.46213        20.90127         0.89940
C         42.76057        22.94858         1.36073
C         41.43855        22.29443         1.09477
C         42.71006        24.44716         1.31170
C         41.51562        25.15354         1.38870
C         42.73717        27.33311         1.53638
C         41.52317        26.60736         1.44633
C         42.75162        28.74525         1.45828
C         41.51050        29.45256         1.33422
C         42.75567        31.57300         1.04305
C         41.51430        30.86990         1.11146
C         42.76326        32.94046         0.64089
C         41.53645        33.60024         0.32656
C         42.84392        35.25711        -0.77498
C         41.56265        34.82118        -0.38711
C         42.85301        37.35788        -1.24193
C         41.59731        37.93611        -1.07757
C         42.82145        40.05422        -1.09828
C         41.58975        39.36970        -1.03006
C         42.83464        41.50486        -1.35551
C         41.52458        42.21253        -1.41378
C         42.76474        44.35001        -0.66918
C         41.50002        43.65077        -1.00649
C         42.75925        45.81819        -0.65796
C         41.54161        46.54440        -0.81534
C         42.78968        48.68168        -0.55598
C         41.51541        47.97820        -0.74794
C         42.78709        50.17585        -0.45909
C         41.50967        50.89845        -0.55907
C         42.77170        52.99156         0.07247
C         41.57193        52.30945        -0.30648
C         42.75257        54.38977         0.48726
C         41.52963        55.07872         0.57539
C         42.67149        57.08227         1.63986
C         41.43485        56.37125         1.27334
C         42.60758        58.40268         1.98406
C         41.42472        59.18960         1.76135
C         45.03598        16.07596        -0.76902
C         43.82842        16.71746        -0.40475
C         45.02388        18.86183        -0.46073
C         43.83508        18.12833        -0.20689
C         44.95960        20.34728        -0.46387
C         43.82029        21.01307         0.21321
C         44.97967        23.24534        -0.00709
C         43.88326        22.34617         0.53452
C         45.22375        24.49285         0.82072
C         44.00314        25.12865         1.43556
C         45.31179        27.32913         1.56304
C         44.00571        26.59193         1.71645
C         45.22820        28.79862         1.48696
C         44.01542        29.47132         1.46922
C         45.20379        31.66196         1.29675
C         43.99432        30.91779         1.30273
C         45.22762        33.02442         0.92238
C         43.99783        33.64779         0.54109
C         45.16413        35.87664         0.20433
C         44.02985        34.90318        -0.11769
C         45.26978        37.23692        -0.49102
C         44.09389        37.95942        -0.86735
C         45.31684        40.06669        -0.87438
C         44.07665        39.38290        -0.92010
C         45.32518        41.51718        -1.14219
C         44.05845        42.27845        -1.02369
C         45.30689        44.28870        -0.21887
C         44.04877        43.60588        -0.73351
C         45.30349        45.79319        -0.28372
C         43.98740        46.46007        -0.15679
C         45.25008        48.66722         0.14436
C         43.94563        47.94076         0.03394
C         45.21830        50.13165        -0.13304
C         43.93564        50.80118         0.30282
C         45.22888        52.96045         0.38095
C         43.99656        52.29360         0.18443
C         45.20812        54.35293         0.75358
C         43.96871        55.00281         0.93290
C         45.21553        57.08969         1.45918
C         43.96231        56.29109         1.73126
C         46.19785        16.79333        -0.96848
C         47.45340        18.94403        -1.08249
C         46.21453        18.20408        -0.84857
C         47.52997        20.37039        -0.58755
C         46.22107        21.12360        -0.67003
C         47.42373        23.30504        -0.52844
C         46.28469        22.55486        -0.30096
C         47.51201        24.70267        -0.16862
C         46.42419        25.32293         0.51422
C         47.63362        27.47175         0.60447
C         46.48583        26.65742         0.94427
C         47.65265        28.83373         0.90589
C         46.55286        29.46232         1.75049
C         47.73458        31.74055         1.45020
C         46.47128        30.98586         1.66251
C         47.69957        33.14642         1.00312
C         46.45932        33.78969         0.76276
C         47.69845        35.88578         0.38103
C         46.47932        35.15265         0.37767
C         47.70401        37.30196         0.10487
C         46.48195        37.95845        -0.32321
C         47.75946        40.10359        -0.46597
C         46.51474        39.37190        -0.60918
C         47.82353        41.51207        -0.69467
C         46.60948        42.25807        -1.06097
C         47.74637        44.42086        -0.79657
C         46.57961        43.70354        -0.75645
C         47.76971        45.84328        -0.55953
C         46.50348        46.48938        -0.29883
C         47.77211        48.71817        -0.29935
C         46.54275        47.94129        -0.01764
C         47.77336        50.12278        -0.16746
C         46.50807        50.87638        -0.15932
C         47.70472        52.94936         0.48048
C         46.48501        52.28974         0.25328
C         47.68684        54.34766         0.83336
C         46.45588        55.03785         0.95725
C         46.38492        56.47243         1.17827
C         49.84395        19.09832        -1.67818
C         48.59887        18.37843        -1.58129
C         49.90696        20.45733        -1.50522
C         48.61530        21.16056        -1.29287
C         49.82684        23.43442        -1.56985
C         48.55748        22.65182        -1.24915
C         49.86924        24.80214        -0.92532
C         48.73525        25.44523        -0.41111
C         49.97770        27.59637        -0.17855
C         48.78152        26.84777        -0.03932
C         50.06582        28.94874         0.21583
C         48.78077        29.69038         0.40372
C         50.16149        31.65010         1.12555
C         48.96535        30.99228         1.12376
C         50.13154        33.11227         1.40568
C         48.90729        33.83619         0.97140
C         50.16851        35.95349         0.80383
C         48.93050        35.23027         0.71498
C         50.15850        37.36734         0.60675
C         48.91086        38.03860         0.26338
C         50.09383        40.26372         0.32506
C         48.91452        39.44422         0.00729
C         50.20852        41.63591        -0.18068
C         49.01958        42.24320        -0.62433
C         50.29522        44.44701        -0.85632
C         49.01622        43.68124        -0.99733
C         50.26129        45.92670        -0.78427
C         48.97482        46.59743        -0.67039
C         50.13380        48.84619        -1.01712
C         48.96269        48.01446        -0.55314
C         50.21935        50.20067        -0.33239
C         48.99946        50.85906        -0.06887
C         50.18448        52.93278         0.50015
C         48.96385        52.25078         0.30813
C         50.13575        54.31588         0.88562
C         48.95291        54.98850         1.04155
C         52.43050        20.56404        -1.51551
C         51.12917        21.24837        -1.47684
C         52.43070        23.32406        -1.19236
C         51.09513        22.61771        -1.36133
C         52.39360        24.82579        -1.29746
C         51.11602        25.53696        -1.19395
C         52.49441        27.60820        -0.51640
C         51.17975        27.00631        -0.78932
C         52.52220        28.90422         0.01502
C         51.31183        29.62757         0.27358
C         52.63098        31.67285         0.79262
C         51.39355        30.99317         0.72058
C         52.70773        32.98524         1.55748
C         51.42369        33.85227         1.49054
C         52.61230        35.98774         1.01268
C         51.40990        35.28497         1.08057
C         52.62858        37.40300         0.80724
C         51.38354        38.07706         0.68608
C         52.66202        40.26241         0.49303
C         51.40307        39.54229         0.68971
C         52.66126        41.65180         0.22926
C         51.44480        42.34957        -0.10063
C         52.67974        44.48824        -0.18847
C         51.49802        43.74474        -0.38070
C         52.70871        45.93736        -0.43365
C         51.46249        46.61351        -0.79675
C         52.75947        48.83926        -0.95049
C         51.46628        48.08509        -1.04550
C         52.71758        50.25871        -0.47901
C         51.45728        50.88904        -0.18310
C         52.67756        52.89194         0.51800
C         51.43852        52.24502         0.28953
C         53.55729        21.23132        -1.81896
C         54.79217        23.45916        -2.06447
C         53.47285        22.71401        -2.13444
C         54.83222        24.81779        -1.67896
C         53.59910        25.51703        -1.32322
C         54.94560        27.53378        -0.83013
C         53.68098        26.90636        -0.91277
C         55.08197        28.82941        -0.15106
C         53.80495        29.54999         0.31398
C         55.11739        31.67325         0.48861
C         53.85051        31.00454         0.52528
C         55.17413        33.08128         0.73518
C         53.97450        33.78825         1.26530
C         55.10851        36.02201         0.72992
C         53.90560        35.28281         1.13246
C         55.11456        37.39994         0.80077
C         53.86571        38.12887         0.82195
C         55.11073        40.27694         0.69140
C         53.88724        39.55250         0.65990
C         55.13903        41.67773         0.50278
C         53.89421        42.37734         0.23432
C         55.11120        44.52268         0.39018
C         53.87387        43.77831         0.09718
C         55.09264        46.01909         0.28663
C         53.87454        46.66227        -0.23340
C         55.22005        48.82156        -0.26432
C         54.07422        48.03318        -0.84564
C         55.23850        50.27942        -0.63649
C         53.91529        50.94107        -0.25267
C         53.87758        52.25717         0.26545
C         57.16468        23.52878        -2.58916
C         55.95873        22.84052        -2.53503
C         57.24472        24.87966        -2.19811
C         56.06408        25.53366        -1.74602
C         57.35950        27.62710        -1.35571
C         56.12551        26.91244        -1.32780
C         57.42288        29.00151        -0.93289
C         56.28951        29.63468        -0.36971
C         57.52885        31.74466        -0.12286
C         56.30791        31.00463         0.02163
C         57.55404        33.13775         0.14169
C         56.34550        33.80083         0.48996
C         57.60247        35.93028         0.95225
C         56.36397        35.30146         0.33119
C         57.58648        37.43847         0.79394
C         56.38861        38.11050         0.80861
C         57.63521        40.29696         0.86643
C         56.35317        39.57160         1.15690
C         57.61548        41.70132         0.73358
C         56.37640        42.38140         0.54770
C         57.62079        44.58950         0.58041
C         56.41513        43.81954         0.10923
C         57.58759        46.01510         0.56493
C         56.38849        46.72686         0.28173
C         57.58266        48.88993         0.46389
C         56.38419        48.15396         0.15505
C         57.53980        50.32222         0.35932
C         56.45500        50.98769        -0.11415
C         59.67363        24.99922        -2.73710
C         58.49903        25.61408        -2.26379
C         59.77836        27.69483        -1.92598
C         58.54486        26.97914        -1.84724
C         59.83100        29.08745        -1.51486
C         58.66158        29.72816        -1.02333
C         59.93385        31.82556        -0.71616
C         58.71443        31.09490        -0.60990
C         59.98532        33.22469        -0.33726
C         58.79381        33.89017         0.05818
C         60.05239        35.98576         0.38772
C         58.84656        35.26528         0.41409
C         60.06541        37.42981         0.67554
C         58.85216        38.14296         0.81607
C         60.09736        40.29260         0.85722
C         58.86103        39.57855         0.86212
C         60.07991        41.74222         0.90629
C         58.85423        42.44137         0.78367
C         60.04293        44.60512         1.02829
C         58.83213        43.88398         0.79945
C         60.01604        46.05490         1.08008
C         58.80028        46.75214         0.82070
C         59.97956        48.88006         1.12722
C         58.78248        48.18644         0.81718
C         60.87279        25.70383        -2.80517
C         60.92664        27.03675        -2.40715
C         61.02988        29.83112        -1.58960
C         61.07850        31.15972        -1.20811
C         61.19383        33.96322        -0.35570
C         61.22856        35.30166        -0.01027
C         61.27803        38.16030         0.71731
C         61.29578        39.54325         0.82470
C         61.27315        42.49499         1.08011
C         61.24899        43.87397         1.16168
C         61.18108        46.79645         1.37977
C         61.15193        48.18989         1.41314
O         46.05663        41.87917        -2.38402
O         42.93704        36.11785        -1.86012
O         37.26705        48.26055        -2.88380
O         29.42433        22.65658        -1.87271
O         32.44762        28.03344         3.06336
O         41.80701        43.82291         0.40106
O         24.76559        46.30808        -2.74107
O         54.96994        45.30372         1.60592
O         35.87480        32.51406         2.72122
O         44.81081        26.89595         2.88825
O         27.19204        26.77980        -1.96453
O         50.97428        26.62201        -2.18806
O         50.61148        33.60993         2.69327
O         50.54016        40.12926         1.71990
O         40.36760        19.20403         2.26836
O         48.10835        21.90452        -2.44725
O         34.53482        24.75186         3.20993
O         27.29944        42.45327         1.10243
O         44.97620        24.35664         2.24646
O         45.71355        50.57781        -1.41008
O         49.80542        43.98443        -2.18914
O         25.39048        36.85021         2.26059
O         40.67815        54.21877        -1.53008
O         39.36331        51.99940        -2.40018
O         45.32979        20.88199        -1.80856
O         35.81222        20.24098         2.68851
O         42.23334        41.89890        -2.65348
O         28.52160        43.65842        -2.11311
O         40.19605        36.09158        -2.06359
O         40.36842        56.41276         2.30610
O         54.22530        34.63033         2.44683
O         52.17959        48.53545        -2.26998
O         32.81287        44.93320        -2.58613
O         47.16655        31.60224         2.81260
O         54.64276        28.79814         1.25227
O         43.66743        47.10704         1.18044
O         46.00525        48.30270         1.32986
O         27.74809        27.82326         1.59598
O         43.18751        49.51821        -1.69849
O         31.67174        51.24548         1.17188
O         44.78736        36.30224         1.57757
H         44.96173        35.54818         2.18211
O         49.76977        49.15872        -2.39870
H         50.61225        49.32196        -2.88437
O         29.15234        46.50854        -2.95970
H         29.06911        45.56012        -3.21410
O         43.04575        22.60359         2.76757
H         43.88007        23.07768         3.00746
O         47.84706        20.31948         0.83333
H         48.60022        19.70430         0.95670
O         56.49365        43.80192        -1.36640
H         57.30338        43.30662        -1.61341
O         52.98470        22.85729        -3.48986
H         53.68602        22.55653        -4.10345
O         57.55884        35.67339         2.37878
H         58.24785        36.21743         2.81319
O         44.48748        23.71512        -1.30765
H         44.56836        22.95199        -1.92712
O         44.05050        55.87317         3.14227
H         44.89417        55.38455         3.24916
O         43.69673        50.48738         1.70260
H         44.45415        50.80643         2.23605
O         37.50744        39.91330        -2.62187
H         38.29139        40.26021        -3.10176
O         55.32468        50.36204        -2.10412
H         55.14127        49.45654        -2.46387
O         49.82117        23.72752        -2.99699
H         49.30451        23.00446        -3.42639
O         31.34196        20.97588         2.64727
H         32.16329        21.33934         3.04316
O         56.50206        35.52869        -1.11253
H         55.75656        35.08479        -1.56772
O         29.07688        25.12760        -2.43234
H         29.63695        24.35194        -2.67106
O         35.83988        40.51281         1.39061
H         35.83770        39.67218         1.89680
O         48.35173        30.11541        -0.97185
H         48.42913        29.32457        -1.55001
O         40.44618        44.44266        -2.96826
H         39.66910        44.91066        -3.34166
O         38.02357        27.53893         3.52437
H         37.92504        26.65428         3.93726
O         34.13865        34.33590         3.09358
H         34.61483        33.60544         3.56319
O         31.73791        35.62396         2.89249
H         32.57034        35.21356         3.24461
O         56.26083        39.58282         2.64503
H         56.13796        40.51715         2.91958
O         37.44092        50.63185        -3.04097
H         37.95634        51.44179        -3.28182
O         25.48971        43.81642        -2.86086
H         25.08108        44.51066        -3.42851
O         39.28664        57.26837        -1.09992
H         38.73534        56.79972        -1.76179
O         52.89809        23.02527         0.16014
H         52.29650        23.45961         0.79985
O         35.38655        45.64104        -3.18528
H         34.50010        45.27812        -3.43053
O         45.31500        43.97441         1.22822
H         44.62914        44.53366         1.65549
O         46.87970        29.10360         3.12228
H         47.19842        29.92832         3.56452
O         34.44192        42.72868         1.14971
H         34.85327        41.95366         1.60692
O         34.98831        41.15695        -2.14776
H         35.75420        40.68138        -2.55717
O         54.52497        47.74522        -2.22082
H         53.69891        47.65492        -2.76008
O         52.84253        32.52270         2.91960
H         53.12779        33.29586         3.45728
O         27.79521        33.06148         2.83332
H         28.61915        32.66815         3.19354
O         26.05848        29.18662        -1.89468
H         25.96136        30.13257        -2.13093
O         34.26824        29.75154         3.63260
H         33.78710        28.98440         4.02686
O         25.26360        27.33954         1.16110
H         25.13643        26.38614         1.34147
O         36.12467        30.77045        -0.46617
H         36.84920        30.31477        -0.94449
H         23.54497        23.94889        -2.53415
H         21.44583        25.23060        -2.79334
H         21.26348        27.55439        -1.96847
H         21.03066        29.14307        -0.78272
H         20.92170        31.48940        -0.13484
H         20.86271        33.35488         0.28687
H         20.82192        35.76050         0.55494
H         20.80258        37.61571         0.57210
H         20.76594        39.99183         0.09008
H         20.68239        41.77628        -0.56174
H         20.67973        44.14889        -1.08129
H         20.72912        46.07282        -0.79896
H         22.93798        49.74562        -0.59494
H         20.81183        48.52146        -0.58361
H         24.93708        22.84391        -1.50685
H         24.56161        50.69030        -0.86507
H         26.99697        21.58088        -1.31168
H         26.65005        51.86045        -0.55065
H         30.04514        19.35731         0.93196
H         28.37394        20.57031        -0.34122
H         30.34130        53.98421        -0.14293
H         28.28513        52.78126        -0.43783
H         31.87216        18.54426         0.00963
H         31.99366        54.86396         0.13428
H         33.99017        17.33102        -0.26177
H         34.08297        56.10678         0.16169
H         37.57836        14.96719        -0.15507
H         35.50592        16.18770         0.20647
H         37.61966        58.19792         1.08545
H         35.61646        56.85209         0.92663
H         39.21709        13.98785        -0.13000
H         39.46506        59.29300         0.91700
H         43.46018        14.01454        -0.74677
H         41.32362        12.79864        -0.60551
H         43.50622        58.92926         2.33481
H         41.49389        60.27721         1.90656
H         45.06561        14.98715        -0.90285
H         45.20360        58.17936         1.60477
H         47.11508        16.25337        -1.23820
H         47.29890        57.07421         1.07149
H         50.74902        18.51875        -1.90702
H         48.60949        17.32418        -1.89185
H         51.07100        54.86596         1.05400
H         48.98167        56.04650         1.33576
H         52.46217        19.48154        -1.32344
H         52.70239        53.91937         0.90363
H         54.51610        20.69613        -1.88331
H         54.81300        52.79657         0.46277
H         58.05337        22.99530        -2.94930
H         55.93010        21.79276        -2.86726
H         58.42493        50.90715         0.64608
H         56.52165        52.07605        -0.25289
H         59.66338        23.95119        -3.06227
H         59.99680        49.97722         1.14549
H         61.77930        25.20653        -3.17660
H         61.88594        27.56508        -2.47583
H         61.95071        29.36481        -1.96235
H         62.03244        31.69459        -1.30178
H         62.13394        33.47734        -0.64823
H         62.18973        35.83087        -0.05491
H         62.23867        37.63155         0.65641
H         62.26780        40.05428         0.84521
H         62.23707        41.97877         1.18175
H         62.19873        44.40239         1.31737
H         62.12559        46.28384         1.60282
H         62.06686        48.74727         1.65696
