         344
 CSIRO Nanostructure Databank - Neutral Graphene Oxide Data Set
C          1.80844         2.12500         2.04940
C          1.70900         3.51250         2.18067
C          3.01826         1.45422         2.04761
C          2.89792         4.36476         2.18467
C          1.60559         6.51790         1.94001
C          1.57944         7.89680         1.79787
C          2.80163         5.78891         1.78717
C          2.76022         8.62855         1.50358
C          1.53890        10.83872         1.56371
C          1.43102        12.13379         1.17617
C          2.73194        10.06402         1.30705
C          2.47856        12.76973         0.29836
C          1.34279        14.99319         0.29500
C          1.33125        16.42216         0.29680
C          2.50299        14.27749         0.38539
C          2.51917        17.14148         0.24021
C          2.51965        18.58061         0.08600
C          4.32639         2.14850         2.32577
C          4.26507         3.66771         2.09639
C          5.43473         1.47464         1.57770
C          5.29673         4.35667         1.29518
C          3.98669         6.47958         1.42906
C          3.95662         7.88886         1.30292
C          5.19077         5.73460         1.07195
C          5.22149         8.59127         1.02416
C          3.88420        10.77208         0.86732
C          3.83037        12.12580         0.49816
C          5.19206        10.09261         0.82960
C          5.02228        12.84523         0.14486
C          3.81308        14.98698         0.62986
C          3.77602        16.44334         0.24069
C          5.01756        14.25114         0.08989
C          4.96875        17.12566         0.02401
C          3.68174        19.26856        -0.05410
C          4.96176        18.58563        -0.06276
C          6.44449         2.13513         0.91958
C          6.40130         3.59332         0.72090
C          7.58334         1.40627         0.45250
C          7.38144         4.20593        -0.01903
C          6.24705         6.43722         0.38458
C          6.30307         7.82138         0.38046
C          7.23999         5.64837        -0.43153
C          7.41382         8.53547        -0.20824
C          6.28549        10.73880         0.07685
C          6.23807        12.12695        -0.15760
C          7.39439         9.97128        -0.34653
C          7.39464        12.83484        -0.65732
C          6.19248        14.96122        -0.28265
C          6.19886        16.41542        -0.20617
C          7.35398        14.26468        -0.69223
C          7.40429        17.13247        -0.36242
C          6.13581        19.28243        -0.10380
C          7.46621        18.59703         0.03494
C          8.66643         2.02946        -0.17743
C          8.48043         3.42696        -0.72065
C          9.86869         1.35262        -0.40968
C          9.78711         4.19008        -0.83971
C          8.57246         6.34617        -0.54476
C          8.56382         7.78384        -0.56424
C          9.73253         5.62836        -0.82239
C          9.69131         8.48489        -1.09435
C          8.46105        10.66053        -1.03389
C          8.53421        12.08832        -1.08630
C          9.46651         9.78480        -1.54546
C          9.77615        12.86796        -1.62052
C          8.51377        15.06143        -1.26864
C          8.58909        16.47566        -0.73889
C          9.81508        14.31449        -1.16327
C          9.83568        17.16455        -0.74030
C          8.56595        19.34001        -0.73497
C          9.87623        18.60066        -0.62687
C         11.03028         2.02234        -0.91228
C         10.97721         3.48337        -1.04031
C         12.20541         1.33687        -1.16451
C         12.24518         4.15249        -1.22832
C         11.00461         6.38197        -0.92055
C         10.99422         7.84185        -1.20166
C         12.27241         5.62072        -1.08158
C         12.18704         8.53999        -1.21585
C         11.26944        10.88686        -1.59436
C         11.08068        12.17408        -1.26096
C         12.21425         9.99985        -0.82927
C         12.22931        12.82618        -0.52895
C         11.01922        14.99115        -0.92630
C         11.05523        16.43772        -0.80479
C         12.27943        14.30188        -0.82097
C         12.30161        17.12946        -0.70263
C         11.07394        19.26965        -0.52673
C         12.32439        18.56926        -0.52542
C         13.43114         2.00547        -1.73147
C         13.43889         3.48230        -1.42327
C         14.71231         1.32057        -1.34458
C         14.70855         4.18563        -1.32070
C         13.49349         6.34002        -1.54398
C         13.48227         7.84778        -1.44497
C         14.74726         5.60002        -1.34353
C         14.76806         8.49398        -1.11019
C         13.54327        10.69939        -0.85621
C         13.52258        12.05322        -0.81012
C         14.78108         9.89767        -0.56300
C         14.79152        12.78205        -0.97023
C         13.48153        15.00308        -0.78940
C         13.51756        16.42041        -0.76046
C         14.77491        14.28723        -0.91525
C         14.86243        17.12205        -0.77097
C         13.53683        19.23396        -0.31542
C         14.79182        18.56295        -0.31379
C         15.90681         2.01022        -1.13702
C         15.91642         3.46576        -1.13868
C         17.14876         1.33441        -0.96691
C         17.12493         4.17104        -0.86146
C         15.94580         6.31052        -1.11291
C         15.93303         7.76808        -1.00594
C         17.10989         5.58855        -0.80466
C         17.21407         8.46188        -0.82484
C         16.07156        10.62825        -0.82980
C         16.07000        12.06919        -0.79665
C         17.25626         9.91907        -0.90573
C         17.24367        12.78745        -0.75783
C         16.01569        14.94657        -0.53986
C         15.89421        16.31684         0.07110
C         17.23432        14.23446        -0.62023
C         17.28049        17.01540         0.26024
C         15.98961        19.21143        -0.03807
C         17.24688        18.52356         0.01195
C         18.37126         2.03059        -0.79034
C         18.35645         3.45888        -0.65619
C         19.61884         1.35195        -0.77729
C         19.57439         4.17434        -0.37216
C         18.26982         6.31899        -0.20163
C         18.36989         7.75775        -0.63388
C         19.55701         5.56654        -0.25891
C         19.71731         8.40603        -0.83701
C         18.53491        10.60372        -0.84379
C         18.56430        12.10589        -1.00238
C         19.70887         9.90852        -0.66677
C         19.73307        12.75191        -0.30403
C         18.45098        14.91862        -0.45794
C         18.41474        16.40869        -0.61192
C         19.64769        14.20657         0.09625
C         19.71747        17.08698        -0.25297
C         18.45222        19.18539        -0.09702
C         19.71622        18.47561        -0.12094
C         20.84442         2.04490        -0.61785
C         20.83386         3.45830        -0.33172
C         22.08868         1.38851        -0.74926
C         22.04800         4.13260        -0.08947
C         20.73160         6.32854         0.16367
C         20.81890         7.75894        -0.05448
C         22.05176         5.54191         0.33600
C         22.15979         8.43387        -0.16181
C         20.93799        10.59291        -0.26841
C         20.89263        12.05132        -0.12507
C         22.06100         9.90919         0.13595
C         22.14416        12.74514         0.17039
C         20.93264        14.95037        -0.13572
C         20.94389        16.33965        -0.20000
C         22.21086        14.17902        -0.29635
C         22.20506        17.06126        -0.15729
C         20.96885        19.17069        -0.07477
C         22.17305        18.49363        -0.14308
C         23.31484         2.08164        -0.61291
C         23.29980         3.47404        -0.23969
C         24.55368         1.43473        -0.83665
C         24.52630         4.17157        -0.00043
C         23.31958         6.29950         0.38013
C         23.32231         7.71324         0.47534
C         24.51145         5.55381         0.37874
C         24.52610         8.45402         0.71690
C         23.17681        10.59672         0.89641
C         23.25433        12.07394         0.57677
C         24.51916         9.88147         0.82211
C         24.46130        12.81798         1.09586
C         23.42365        14.93017         0.18289
C         23.41942        16.35539         0.03778
C         24.55835        14.24282         0.59247
C         24.65319        17.07461         0.23746
C         23.46256        19.27557        -0.23753
C         24.69418        18.47919         0.12196
C         25.77533         2.12812        -0.70690
C         25.76513         3.49577        -0.26372
C         27.02341         1.48565        -0.96429
C         27.00438         4.17427        -0.13318
C         25.75125         6.26586         0.71789
C         25.76015         7.74613         0.84090
C         27.03612         5.53041         0.45827
C         26.96866         8.41697         1.12474
C         25.72666        10.58615         1.04128
C         25.76143        12.04175         1.02720
C         26.95759         9.85849         1.26262
C         26.95687        12.75303         1.09428
C         25.80914        14.93165         0.70314
C         25.85045        16.34687         0.51278
C         27.00486        14.20996         0.96893
C         27.08912        17.04319         0.61712
C         25.91329        19.15395         0.28979
C         27.10111        18.45956         0.52203
C         28.23180         2.16747        -0.82859
C         28.20991         3.54156        -0.45020
C         29.52716         1.49274        -0.93452
C         29.50088         4.17935        -0.07512
C         28.25148         6.38478         0.19733
C         28.20491         7.63386         1.04520
C         29.51495         5.57370         0.43668
C         29.37946         7.95755         1.67371
C         28.14857        10.62261         1.49120
C         28.20239        12.04003         1.27187
C         29.36409        10.05108         1.95655
C         29.44240        12.70203         1.30153
C         28.23857        14.90676         1.02152
C         28.29902        16.30024         0.83006
C         29.50297        14.20133         1.43835
C         29.57598        16.99041         0.74970
C         28.37063        19.23494         0.75549
C         29.61775        18.39960         0.61968
C         30.70810         2.13624        -0.80267
C         30.76041         3.64378        -0.71657
C         32.00095         4.25324        -0.10635
C         30.81079         6.27636         0.65392
C         30.71701         7.49509         1.32510
C         32.01421         5.50694         0.42238
C         31.84039         8.36089         1.64462
C         30.63354        10.57789         1.70096
C         30.67659        11.97511         1.35467
C         31.80317         9.72260         1.81105
C         31.88670        12.65099         1.07291
C         30.76552        14.81728         0.87730
C         30.79522        16.24562         0.68585
C         31.90688        14.02123         0.78153
C         32.00894        16.94091         0.45929
C         30.83679        19.05368         0.42333
C         32.02892        18.32224         0.33196
O         29.46932         4.43096         1.36914
O         10.37900        10.27819        -2.49233
O         14.82796        13.57537        -2.21814
O         26.52174         5.59899         1.80758
O         29.30564         8.88290         2.72370
O         13.44368         7.13672        -2.76113
O          5.64079         9.50323         2.10181
O          3.84896         4.30949         3.33954
O         21.22111         5.83554         1.48987
O         11.87172         6.08452         0.26096
O         15.38300        17.10879        -2.13243
H         14.76944        17.61605        -2.70435
O         17.70475        16.79153         1.62280
H         16.89557        16.51841         2.12402
O         19.41727        14.22289         1.56446
H         19.05285        15.11472         1.78582
O         14.69530         9.72322         0.91201
H         15.46713         9.18157         1.18912
O          7.84974        18.66246         1.44251
H          7.17288        18.17673         1.95917
O          3.99612        14.98324         2.10172
H          3.23623        15.47067         2.48603
O         24.19862        12.95018         2.54144
H         23.92073        12.05610         2.85848
O         22.40109        14.06580        -1.76371
H         22.42139        14.97796        -2.12525
O          6.68515         5.62358        -1.79968
H          7.17343         4.90832        -2.28152
O          9.64049        12.88725        -3.07775
H          9.75523        11.95449        -3.37915
O          8.01500         3.24624        -2.11937
H          7.29713         2.57707        -2.09845
O         23.39396        20.47941         0.53746
H         23.34088        20.23085         1.48288
O         18.82466        12.31933        -2.44342
H         18.78918        13.28654        -2.60918
O         22.56029         8.36680        -1.59488
H         21.72589         8.39045        -2.13438
O         18.15906        16.72049        -2.00701
H         17.18193        16.73270        -2.16692
O         13.33269         1.88458        -3.20911
H         12.49712         2.32186        -3.47988
O         19.98183         8.18519        -2.30431
H         19.41947         8.82431        -2.79528
O         28.21357         6.72572        -1.21449
H         29.03664         7.20488        -1.44415
O         15.28492        16.15878         1.38397
H         14.72260        16.94325         1.56147
O          8.20424        19.44091        -2.12093
H          8.14782        18.53287        -2.48722
O         30.70332         4.13886        -2.09976
H         31.44018         3.72540        -2.59642
O         28.33005        19.80153         2.08713
H         28.31369        19.05980         2.72694
O         22.80072        10.50339         2.32729
H         21.89921        10.88177         2.41859
O         12.02604        12.73257         0.90897
H         11.83615        11.77786         1.10284
O          8.22468        15.22102        -2.71184
H          8.55700        14.40497        -3.16185
O          2.09207        12.45798        -1.09383
H          1.99063        11.48439        -1.15609
O          4.60655         1.91187         3.74382
H          4.25827         2.70056         4.22479
O         29.59733        14.44463         2.90192
H         30.40290        13.98034         3.21591
O         11.75850        10.03403         0.57559
H         12.48689         9.63531         1.10720
O         17.95000         6.39870         1.25576
H         18.80171         6.38368         1.74626
H          0.87925         1.54646         1.93417
H          0.72110         3.98346         2.08370
H          3.03241         0.35824         1.96306
H          0.67843         5.99566         2.21396
H          0.62603         8.42252         1.94044
H          0.71594        10.37986         2.13031
H          0.51944        12.70237         1.41168
H          0.38420        14.46803         0.17143
H          0.36930        16.95149         0.24726
H          1.55335        19.10599         0.08696
H          5.50617         0.38202         1.69439
H          3.67674        20.36372        -0.15480
H          7.66236         0.34166         0.72157
H          6.12017        20.38260        -0.13450
H          9.95113         0.29228        -0.12579
H          8.66657        20.37993        -0.33988
H         12.22195         0.24288        -1.04028
H         11.08281        20.36700        -0.44357
H         14.72242         0.21951        -1.34228
H         13.52296        20.31389        -0.10253
H         17.16688         0.23564        -1.02332
H         15.98702        20.30477         0.10003
H         19.63771         0.26471        -0.94318
H         18.46372        20.28236        -0.19331
H         22.10673         0.31641        -0.99631
H         20.97457        20.26894        -0.01504
H         24.56096         0.37648        -1.13723
H         23.57874        19.60770        -1.31049
H         27.02382         0.42188        -1.24596
H         25.92781        20.25181         0.22833
H         29.51423         0.40079        -1.07698
H         28.41928        20.10529         0.05141
H         31.65369         1.57441        -0.86210
H         32.94935         3.70238        -0.20827
H         32.97116         5.93321         0.76115
H         32.83579         7.88920         1.64074
H         32.77594        10.22660         1.92659
H         32.82848        12.08752         1.03692
H         32.86539        14.46627         0.47952
H         32.95694        16.38962         0.40165
H         30.85469        20.14914         0.33485
H         32.98164        18.84485         0.16892
