         630
 CSIRO Nanostructure Databank - Neutral Graphene Oxide Data Set
C         23.08318        27.45789         0.80217
C         23.09412        28.75240         0.37085
C         23.11189        31.61768        -0.35087
C         23.09689        32.98655        -0.53513
C         23.04326        35.96815        -0.37764
C         23.04531        37.33903        -0.29936
C         23.08423        40.30322         0.05760
C         23.12078        41.67681         0.17152
C         23.15123        44.61855         0.32548
C         23.14489        45.99420         0.30947
C         25.31093        25.11318         2.65186
C         24.19307        25.59765         1.97464
C         25.52640        27.51051         1.18651
C         24.27613        26.82929         1.30148
C         25.54345        28.87386         0.73908
C         24.29939        29.53440         0.36935
C         25.57496        31.62198        -0.06130
C         24.28767        30.89273        -0.00523
C         25.57205        33.09766        -0.35662
C         24.27079        33.80017        -0.48466
C         25.53704        35.94585        -0.74299
C         24.24511        35.20063        -0.48510
C         25.48445        37.42855        -0.43702
C         24.26488        38.11215        -0.30381
C         25.49826        40.27185        -0.27513
C         24.26784        39.54951        -0.16990
C         25.51905        41.70929        -0.23675
C         24.32883        42.41704         0.01349
C         25.55393        44.57467        -0.10552
C         24.34584        43.87604         0.08473
C         25.56813        46.01092        -0.08057
C         24.34460        46.72280         0.07776
C         25.51716        48.81731        -0.30137
C         24.35578        48.14113         0.00079
C         28.61822        23.34647         2.96080
C         28.54213        24.71300         2.67967
C         26.52849        25.78536         2.52452
C         28.02933        27.49649         1.40880
C         26.72468        26.90518         1.68239
C         27.99816        28.86770         0.99521
C         26.76273        29.56453         0.79421
C         28.01560        31.76463         0.56073
C         26.70018        31.07531         0.79569
C         28.00554        33.19003         0.36603
C         26.76651        33.89947         0.02358
C         27.95437        36.08549         0.22177
C         26.74007        35.25458        -0.12889
C         27.97272        37.43734        -0.43972
C         26.70214        38.15244        -0.44232
C         28.04427        40.26154        -0.42366
C         26.71146        39.55244        -0.39746
C         27.91887        41.71132        -0.82385
C         26.75524        42.41711        -0.54894
C         27.95863        44.57420        -0.62646
C         26.77280        43.86965        -0.47220
C         28.08253        45.99737        -0.13996
C         26.77774        46.73882        -0.27414
C         27.96850        48.82578        -0.89657
C         26.75384        48.12599        -0.45925
C         27.88135        50.11969        -1.42544
C         30.67508        23.23227         1.69578
C         29.65055        22.59470         2.41937
C         30.60998        24.63837         1.44819
C         29.44816        25.39057         1.83093
C         30.47170        27.44739         0.95136
C         29.29415        26.79053         1.43630
C         30.45165        28.86419         0.71182
C         29.22260        29.58167         0.78364
C         30.48290        31.71108         0.63397
C         29.19144        31.01546         0.63302
C         30.48167        33.21940         0.47565
C         29.20470        33.91651         0.30043
C         30.41808        35.99616        -0.24334
C         29.23201        35.32058         0.02662
C         30.41359        37.39556        -0.66846
C         29.12749        38.06023        -0.82225
C         30.34891        40.21177        -1.51021
C         29.00594        39.49599        -1.34021
C         30.41734        41.69253        -1.37292
C         29.11494        42.38922        -1.32573
C         30.46019        44.58844        -1.08078
C         29.14372        43.93149        -1.17515
C         30.46340        46.03629        -0.96930
C         29.27941        46.72389        -0.70403
C         30.39370        48.79568        -1.43346
C         29.22068        48.12956        -0.95205
C         30.18495        50.01432        -2.11183
C         28.96870        50.69003        -2.09681
C         33.01192        20.34894         1.09972
C         31.86135        21.06378         1.36805
C         33.00725        23.15426         0.84896
C         31.84332        22.47496         1.28990
C         32.97164        24.57926         0.65854
C         31.75600        25.30625         0.90164
C         32.88940        27.38715         0.28698
C         31.70186        26.71700         0.72487
C         32.87604        28.80857         0.13290
C         31.66995        29.54493         0.35727
C         32.85596        31.66686        -0.09255
C         31.69303        30.96410         0.26445
C         32.87258        33.11617        -0.20439
C         31.69168        33.86921        -0.02924
C         32.88085        35.93995        -0.50157
C         31.66764        35.25840        -0.28458
C         32.86428        37.43408        -0.36599
C         31.60302        38.05389        -0.91250
C         32.91164        40.22841        -1.42081
C         31.62988        39.44115        -1.43112
C         32.90353        41.70170        -1.29643
C         31.61802        42.40233        -1.35030
C         32.90677        44.59422        -1.33969
C         31.62186        43.85882        -1.26258
C         32.92170        46.05112        -1.08778
C         31.70188        46.76697        -1.12368
C         32.95697        48.88915        -1.22155
C         31.70637        48.18045        -1.29710
C         33.10356        50.32790        -1.44017
C         32.22380        51.08000        -2.26028
C         33.40673        53.13927        -1.89040
C         32.38636        52.44839        -2.51358
C         35.48666        18.86183         0.73202
C         35.45004        20.26998         0.58236
C         34.21862        21.00632         0.76571
C         35.41560        23.10662         0.24298
C         34.21135        22.42006         0.61856
C         35.38126        24.51300         0.02936
C         34.14746        25.24604         0.22591
C         35.25669        27.34973        -0.44998
C         34.09610        26.66302         0.02651
C         35.24251        28.74620        -0.55476
C         34.07141        29.48839        -0.22214
C         35.24419        31.62330        -0.59582
C         34.06450        30.93130        -0.32751
C         35.25463        33.04592        -0.87589
C         34.04892        33.80732        -0.58980
C         35.35831        35.92485        -0.67857
C         34.08778        35.22358        -0.63213
C         35.34785        37.37176        -0.66672
C         34.15689        38.06818        -0.76582
C         35.36009        40.28090        -0.69347
C         34.18918        39.50375        -1.08202
C         35.35014        41.64393        -0.83375
C         34.12309        42.35450        -1.13190
C         35.39324        44.56121        -0.70074
C         34.20627        43.83661        -1.22977
C         35.34455        46.00176        -0.57038
C         34.13248        46.73746        -0.86743
C         35.32678        48.86549        -0.40806
C         34.13130        48.17209        -0.82625
C         35.34629        50.29141        -0.35949
C         34.24039        51.02293        -0.92597
C         35.38683        53.18272        -0.44365
C         34.33657        52.45299        -1.07139
C         35.44827        54.59251        -0.49161
C         37.88450        18.81511         0.31225
C         36.66327        18.15650         0.59732
C         37.87327        20.22833         0.13802
C         36.65171        20.95900         0.26677
C         37.82477        23.06597        -0.32723
C         36.63533        22.38491         0.06951
C         37.76773        24.45472        -0.62582
C         36.55985        25.15636        -0.44978
C         37.76618        27.31164        -1.18219
C         36.45704        26.57852        -0.85033
C         37.78855        28.80368        -1.13032
C         36.47719        29.49094        -0.90073
C         37.82005        31.63653        -0.48330
C         36.51703        30.91207        -0.46542
C         37.85153        33.09291        -0.61437
C         36.61839        33.80632        -0.90283
C         37.83388        35.94434        -0.54656
C         36.57691        35.25359        -0.68521
C         37.79780        37.39439        -0.43376
C         36.59937        38.07904        -0.53240
C         37.80118        40.26530        -0.13299
C         36.50349        39.52058        -0.08726
C         37.80740        41.65513        -0.19246
C         36.66038        42.40077        -0.83760
C         37.71996        44.49094         0.10297
C         36.55463        43.84408        -0.40724
C         37.59758        45.91579         0.44165
C         36.45864        46.69607        -0.06908
C         37.65533        48.83286         0.45701
C         36.48095        48.12936         0.01810
C         37.62858        50.25432         0.54172
C         36.49334        50.97833         0.14145
C         37.73846        53.19521         0.35330
C         36.40828        52.47292         0.39939
C         37.77390        54.59182         0.26769
C         36.56662        55.28983        -0.07637
C         40.35541        15.97156         0.29150
C         39.16693        16.66359         0.35764
C         40.33402        18.78390        -0.02431
C         39.12364        18.07898         0.21054
C         40.32052        20.20750        -0.20814
C         39.09271        20.92719        -0.15219
C         40.29048        22.99236        -0.71035
C         39.07276        22.33105        -0.41014
C         40.28106        24.39576        -1.17466
C         38.94109        25.11005        -1.36447
C         40.22541        27.30164        -0.82680
C         39.04933        26.60091        -1.06362
C         40.22137        28.71827        -0.57361
C         39.05562        29.48338        -0.74699
C         40.28809        31.60915        -0.35431
C         39.07225        30.88753        -0.60594
C         40.28469        33.05844        -0.29445
C         39.05631        33.79005        -0.46248
C         40.34208        35.97848        -0.53827
C         39.03523        35.23415        -0.47260
C         40.23642        37.40014        -0.02557
C         39.02752        38.10392        -0.11814
C         40.20837        40.22989         0.31717
C         39.00099        39.52501         0.07509
C         40.18417        41.65821         0.40738
C         38.99009        42.37200         0.14966
C         40.15307        44.52234         0.65645
C         38.94037        43.80887         0.30963
C         40.13889        45.90932         0.79093
C         38.88457        46.66132         0.80027
C         40.11606        48.80410         0.84599
C         38.90460        48.13430         0.69981
C         40.13747        50.22462         1.32883
C         38.82963        50.98419         1.06400
C         40.23100        53.11955         0.80922
C         38.90987        52.46456         0.84751
C         40.29323        54.54284         0.31050
C         39.01121        55.31901         0.45696
C         40.29275        57.39412         0.68276
C         39.07377        56.70645         0.56758
C         42.82049        15.96018         0.03474
C         41.58235        16.65732         0.08167
C         42.80225        18.76829        -0.28323
C         41.57087        18.07071        -0.08023
C         42.78511        20.18874        -0.43616
C         41.54700        20.90232        -0.42239
C         42.78543        23.03447        -0.70597
C         41.52952        22.31337        -0.64461
C         42.80683        24.45562        -0.70906
C         41.58196        25.17078        -1.11305
C         42.77731        27.32965        -0.45004
C         41.58644        26.69592        -1.15595
C         42.74565        28.70081        -0.10710
C         41.39976        29.37537         0.11677
C         42.61808        31.59229         0.42179
C         41.44173        30.87721        -0.06876
C         42.69371        33.05467         0.28139
C         41.49956        33.76605        -0.04098
C         42.69297        35.85476         0.36339
C         41.52330        35.19117        -0.01076
C         42.61428        37.29446         0.69284
C         41.41059        38.08095         0.36684
C         42.65672        40.19992         0.66856
C         41.41232        39.48712         0.50477
C         42.63655        41.66201         0.63777
C         41.41308        42.37710         0.61100
C         42.65995        44.48944         0.73551
C         41.42265        43.80058         0.69292
C         42.69811        45.94079         1.00195
C         41.37485        46.66726         1.03195
C         42.59996        48.81366         0.70637
C         41.38349        48.12604         0.85097
C         42.59705        50.27164         0.72649
C         41.40787        50.96140         0.95566
C         42.69551        53.09491         1.26165
C         41.39340        52.40539         0.94756
C         42.70827        54.57335         0.97977
C         41.52910        55.27420         0.76079
C         42.75746        57.38398         0.98650
C         41.52313        56.70288         0.78438
C         44.00530        16.63754        -0.15452
C         45.27075        18.77071        -0.52237
C         44.03204        18.05026        -0.31659
C         45.23322        20.17672        -0.69052
C         44.01421        20.89023        -0.61863
C         45.25896        23.03824        -0.56200
C         44.00872        22.32437        -0.67253
C         45.24014        24.47128        -0.39189
C         44.01712        25.17113        -0.50798
C         45.21736        27.31141        -0.12508
C         43.99536        26.61786        -0.38058
C         45.19610        28.71469         0.12815
C         43.93882        29.38016         0.21968
C         45.15056        31.59877         0.60106
C         43.90388        30.81255         0.62302
C         45.15589        32.97143         0.57427
C         43.91833        33.72829         0.46302
C         45.17713        35.88058         0.67370
C         43.93243        35.15985         0.52397
C         45.18671        37.31509         0.78280
C         43.90432        38.04260         0.95556
C         45.11347        40.23349         0.81506
C         43.84549        39.49992         0.78653
C         45.06596        41.62061         0.28868
C         43.83821        42.38425         0.52949
C         45.14830        44.50004         0.38354
C         43.88307        43.79672         0.53363
C         45.21326        45.97536         0.74558
C         43.90299        46.72005         0.66065
C         45.01803        48.78943        -0.18115
C         43.85240        48.08825         0.52093
C         45.05427        50.30146         0.03284
C         43.84869        51.00227         0.53795
C         45.16710        53.09178         0.81813
C         43.91478        52.36794         0.75143
C         45.16952        54.49274         1.14701
C         43.94719        55.25817         1.11902
C         43.93657        56.68154         1.11500
C         47.73272        18.82552        -0.59220
C         46.53029        18.11230        -0.50740
C         47.76037        20.20368        -0.78771
C         46.47769        20.92757        -1.09186
C         47.72861        22.99905        -0.12935
C         46.46471        22.34732        -0.60670
C         47.71282        24.50025        -0.26951
C         46.48361        25.18776        -0.26464
C         47.69159        27.32196         0.03265
C         46.46741        26.61455        -0.13282
C         47.66630        28.73513         0.29614
C         46.43418        29.39947         0.38146
C         47.69260        31.55842         0.96667
C         46.39563        30.81693         0.79158
C         47.70736        33.02906         0.82873
C         46.45602        33.71385         0.32658
C         47.64656        35.88622         0.69369
C         46.42034        35.19102         0.64011
C         47.64150        37.32772         0.67516
C         46.38729        38.01781         0.72517
C         47.63256        40.23694         0.40972
C         46.41060        39.49816         0.82008
C         47.60221        41.58504         0.15153
C         46.33532        42.33995         0.02997
C         47.60268        44.48716         0.00875
C         46.33393        43.81271         0.14719
C         47.55717        45.94005        -0.20123
C         46.36832        46.71228         0.11985
C         47.63338        48.79778        -0.06791
C         46.37566        48.09377        -0.01230
C         47.71217        50.32384        -0.14348
C         46.37710        51.04419         0.07329
C         47.62823        53.06041         0.93418
C         46.39035        52.40745         0.65323
C         47.59844        54.42961         1.31768
C         46.41133        55.12413         1.39685
C         50.22620        20.31244        -1.15901
C         48.99432        20.95504        -0.86345
C         50.19630        23.09139        -0.66569
C         48.98877        22.34973        -0.64276
C         50.18867        24.51014        -0.39855
C         48.94251        25.20953        -0.23086
C         50.17852        27.34059         0.06780
C         48.93507        26.62653        -0.04965
C         50.17854        28.73198         0.34295
C         48.92691        29.44658         0.49229
C         50.19244        31.51268         1.20656
C         48.93724        30.80633         0.77879
C         50.17261        33.01279         0.96993
C         48.92298        33.71426         0.84801
C         50.09370        35.88919         0.98837
C         48.91649        35.18077         0.77258
C         50.09450        37.36020         0.97540
C         48.84437        38.06064         0.65576
C         50.07204        40.15043         0.17988
C         48.87805        39.48843         0.41943
C         50.11065        41.57775        -0.17520
C         48.81459        42.33260        -0.21740
C         50.09278        44.49327        -0.09843
C         48.81790        43.80949        -0.11227
C         50.13319        45.90701        -0.05044
C         48.90831        46.68873        -0.27110
C         50.12372        48.78294         0.27900
C         48.85574        48.11938         0.01826
C         50.12919        50.16603         0.55179
C         48.79492        50.83431         0.82371
C         50.10440        52.98282         0.93285
C         48.86365        52.34291         0.85175
C         51.40233        21.03081        -1.20730
C         52.66883        23.16252        -0.91816
C         51.42597        22.42399        -0.94991
C         52.65686        24.54803        -0.58746
C         51.41341        25.22836        -0.35547
C         52.66099        27.32334         0.05762
C         51.41373        26.63370        -0.09063
C         52.67240        28.74678         0.27701
C         51.42489        29.46145         0.39987
C         52.61085        31.64510         0.49179
C         51.41276        30.84535         0.64766
C         52.64144        33.06728         0.88205
C         51.39685        33.72041         1.02141
C         52.71127        35.95866         0.98022
C         51.36508        35.18563         1.20767
C         52.65898        37.35192         0.54886
C         51.41407        38.09919         0.72271
C         52.58692        40.16111        -0.04913
C         51.31323        39.36551        -0.09410
C         52.58488        41.58753         0.02031
C         51.35776        42.33526         0.00697
C         52.56168        44.46798         0.21777
C         51.33183        43.74836         0.02141
C         52.55930        45.85722         0.31304
C         51.34756        46.61114         0.16962
C         52.59629        48.75572         0.41190
C         51.34845        48.04318         0.28008
C         52.60048        50.17416         0.52393
C         51.34589        50.88260         0.65836
C         51.30859        52.28609         0.86198
C         55.10419        23.24039        -1.10251
C         53.90924        22.53463        -1.16941
C         55.13067        24.59920        -0.74983
C         53.89257        25.25729        -0.46045
C         55.16266        27.23725         0.44161
C         53.88011        26.62216        -0.06000
C         55.15706        28.74431         0.43180
C         53.92099        29.41882         0.41583
C         55.13732        31.61802         0.84603
C         53.93249        30.88834         0.37468
C         55.12928        33.08635         0.66836
C         53.89326        33.77539         0.75704
C         55.07798        35.87558         0.21714
C         53.91137        35.19468         0.64410
C         55.04743        37.29475        -0.02663
C         53.80027        38.00183         0.06477
C         55.01304        40.14199        -0.36864
C         53.78442        39.44486        -0.12330
C         55.01815        41.58823        -0.29107
C         53.81546        42.26918         0.03704
C         55.10264        44.41220         0.18281
C         53.83123        43.68560         0.53378
C         55.13604        45.84845         0.47437
C         53.81766        46.59285         0.57868
C         55.07372        48.74032         0.41123
C         53.83827        48.05682         0.42681
C         55.04203        50.15911         0.46181
C         53.84849        50.84652         0.54970
C         57.58660        24.81225        -1.23216
C         56.38294        25.35380        -0.72105
C         57.60756        27.39476        -0.12705
C         56.39936        26.66157        -0.19511
C         57.61855        28.73864         0.40563
C         56.41067        29.42136         0.57398
C         57.72829        31.67163         0.92154
C         56.42084        30.86141         0.95159
C         57.57508        33.04540         0.28671
C         56.34356        33.76068         0.37620
C         57.49194        35.85151        -0.32770
C         56.30238        35.16244         0.06312
C         57.47432        37.27028        -0.52407
C         56.23528        37.98809        -0.36621
C         57.39705        40.09592        -1.04163
C         56.19503        39.40579        -0.57110
C         57.40360        41.66217        -0.98776
C         56.21487        42.32525        -0.46032
C         57.51049        44.46668        -0.38100
C         56.25563        43.74219        -0.20656
C         57.52717        45.89035        -0.20501
C         56.34946        46.61084         0.15539
C         57.56692        48.70821         0.03119
C         56.33664        48.01609         0.23511
C         58.77824        25.52211        -1.16113
C         60.06869        27.51966        -0.43239
C         58.81445        26.80718        -0.59171
C         60.13713        28.70541         0.20335
C         58.93270        29.41073         0.77188
C         59.82139        31.47780        -0.42812
C         58.85653        30.86164         0.33638
C         59.81411        32.87253        -0.65482
C         58.71075        33.67277        -0.28356
C         59.86447        35.81408        -0.87606
C         58.69693        35.11132        -0.52205
C         59.86137        37.19700        -1.01732
C         58.68465        37.95602        -0.84879
C         59.84178        40.16246        -1.16808
C         58.69065        39.40294        -1.02192
C         59.84739        41.58351        -1.12644
C         58.70384        42.34325        -0.93255
C         59.91230        44.53315        -0.84398
C         58.70801        43.78361        -0.70355
C         59.93074        45.90272        -0.70302
C         58.74141        46.61428        -0.38935
C         58.73205        48.02900        -0.24845
O         33.79944        39.75996        -2.49302
O         41.10028        24.58759        -2.39013
O         53.32262        31.44359        -0.80679
O         54.53443        46.16949         1.80532
O         33.72695        44.29675        -2.54213
O         43.04303        31.10041         1.78112
O         25.90488        32.10095        -1.39951
O         48.17508        46.31775        -1.47450
O         30.66399        32.59690         1.80279
O         55.62269        31.14445         2.15909
O         36.89042        26.81013        -2.22891
O         42.07142        46.27912         2.28917
O         37.03974        29.37971        -2.25225
O         30.97271        39.67754        -2.73579
O         37.14293        31.19378         0.84313
O         35.93774        33.37751        -2.13371
O         52.16632        35.67486         2.31415
O         27.56075        25.40922         3.39068
O         45.53583        41.78563        -1.09874
O         57.16917        40.91842        -2.22664
O         37.93870        46.21189         1.83765
O         28.89987        43.27894        -2.46327
O         31.18600        50.48822        -2.97107
O         45.85276        40.05470         2.07835
O         49.43562        41.85602        -1.47532
O         43.08441        37.54666         2.06666
O         45.57819        50.98890        -1.16820
O         38.55005        51.85891         2.22036
O         46.92974        31.05670         2.15198
O         50.84414        38.06638         2.04690
O         51.17082        38.88140        -1.48058
H         50.97490        39.66022        -2.04600
O         27.85702        36.36896         1.66411
H         27.98977        35.52040         2.13849
O         41.12809        29.16776         1.55468
H         41.75761        29.76057         2.03997
O         26.30219        31.43824         2.16733
H         26.99488        31.10466         2.77646
O         35.93600        52.59440         1.79538
H         36.69680        52.30736         2.35937
O         59.07584        29.37749         2.22104
H         58.75343        30.24400         2.57731
O         38.59308        24.95220        -2.76256
H         39.42818        25.01614        -3.27838
O         25.75398        35.86787        -2.19635
H         25.73815        34.91889        -2.44748
O         46.43139        21.01158        -2.58386
H         46.33080        20.09479        -2.91902
O         44.68827        48.59068        -1.58910
H         45.08923        49.34217        -2.08424
O         48.16138        50.66449        -1.47154
H         47.37060        50.66050        -2.05577
O         53.83987        43.55702         2.00776
H         54.02219        44.46713         2.35619
O         40.25276        50.07231         2.78332
H         39.74056        50.81862         3.17916
O         41.80125        27.08105        -2.54809
H         41.46187        26.34180        -3.10491
O         45.51671        45.97835         2.19406
H         44.69803        45.71893         2.67097
O         36.16818        39.42801         1.35312
H         36.94807        39.04726         1.81147
O         40.45818        54.38466        -1.15915
H         40.50217        55.28741        -1.54159
O         42.78866        53.00583         2.73195
H         42.68822        52.06015         2.97597
O         28.63025        40.23508         0.91230
H         27.92593        40.43754         1.56274
O         55.23744        26.84782         1.87068
H         54.52312        27.32690         2.34262
O         47.75415        22.76232         1.34009
H         48.55168        23.21450         1.69058
O         46.58555        33.64975        -1.15342
H         47.33760        34.22674        -1.40868
O         28.34660        45.91349         1.31277
H         27.53175        45.56795         1.73621
O         58.07362        31.91969         2.33151
H         57.21124        31.99997         2.80891
O         28.38067        39.46361        -2.63684
H         29.08815        39.27210        -3.29344
O         37.04188        42.46345        -2.25868
H         36.27752        42.82723        -2.75653
O         32.79042        37.70770         1.09660
H         33.59262        37.32399         1.51217
O         50.24393        31.32984         2.67762
H         49.34555        31.51352         3.02978
O         48.36003        50.40992         2.15349
H         49.03802        50.69826         2.80001
O         40.64024        36.12880        -1.97876
H         39.85188        36.52916        -2.40441
H         22.14315        26.88773         0.82329
H         22.15473        29.20915         0.03243
H         22.15117        31.08695        -0.40615
H         22.12983        33.47028        -0.73290
H         22.08016        35.44098        -0.31260
H         22.08152        37.85811        -0.20580
H         22.11812        39.79127         0.16370
H         22.17810        42.20529         0.36517
H         22.20440        44.09110         0.49991
H         22.20568        46.54474         0.46369
H         25.24029        24.23772         3.30988
H         23.22463        25.08487         2.05713
H         25.48501        49.91155        -0.38839
H         23.41671        48.69352         0.14900
H         27.87169        22.89033         3.62299
H         26.92704        50.66157        -1.42049
H         29.70018        21.52163         2.64054
H         28.85817        51.63601        -2.64153
H         32.97458        19.25482         1.17338
H         30.95308        20.51009         1.63822
H         33.50374        54.21700        -2.06665
H         31.68643        52.95488        -3.18982
H         34.57005        18.30501         0.96375
H         34.60486        55.16998        -0.89400
H         36.63769        17.06721         0.72778
H         36.56160        56.38622        -0.12851
H         40.36604        14.87840         0.40882
H         38.24056        16.09961         0.52695
H         40.28819        58.49113         0.75100
H         38.14693        57.29712         0.58805
H         42.82282        14.86730         0.15570
H         42.76299        58.48321         1.01357
H         44.94131        16.06432        -0.18324
H         44.87669        57.23969         1.22054
H         48.67408        18.27424        -0.45274
H         46.58297        17.02724        -0.35189
H         48.53333        54.95271         1.55678
H         46.43843        56.18241         1.68830
H         50.24439        19.23370        -1.36578
H         50.15105        54.07727         1.01832
H         52.33264        20.49668        -1.43982
H         52.24221        52.85888         0.92702
H         56.03929        22.70520        -1.31469
H         53.94947        21.46943        -1.43059
H         55.97742        50.73345         0.46291
H         53.88211        51.94145         0.62229
H         57.59481        23.81091        -1.68319
H         57.60038        49.80327         0.10138
H         59.70781        25.07244        -1.53873
H         60.98557        27.03052        -0.79556
H         61.11876        29.16224         0.39806
H         60.66214        30.89030        -0.82544
H         60.67477        33.31890        -1.16943
H         60.81105        35.27562        -1.01862
H         60.80227        37.69901        -1.27996
H         60.82049        39.66477        -1.21651
H         60.83082        42.07328        -1.15070
H         60.84657        44.01382        -1.09573
H         60.86898        46.45979        -0.83777
H         59.67166        48.58334        -0.38595
