         236
 CSIRO Nanostructure Databank - Neutral Graphene Oxide Data Set
C        -10.99509         0.83871        -0.83214
C         -9.70162         1.60718        -0.97941
C         -8.53493         0.86113        -0.38981
C         -7.41710         1.56125         0.19719
C         -6.26226         0.85274         0.53786
C         -5.20482         1.51859         1.38757
C         -3.86869         0.73856         1.47651
C         -2.58275         1.50129         1.71946
C         -1.25517         0.78705         1.49159
C          0.02118         1.50570         1.84783
C          1.38002         0.71946         1.85324
C          2.42434         1.30056         0.85663
C          3.76834         0.56914         0.92017
C          5.04758         1.28196         0.71116
C          6.31950         0.83743         1.36771
C          7.59683         1.60375         1.06952
C          8.92596         0.84358         1.13546
C         10.02153         1.52473         0.32708
C         11.25542         0.77069         0.18029
C         -9.76803         3.03867        -0.56350
C         -8.66049         3.71982        -0.03522
C         -7.48638         2.98895         0.42042
C         -6.30667         3.68017         0.82675
C         -5.11518         2.99185         1.08059
C         -3.82135         3.69826         1.03248
C         -2.57814         2.98921         1.47167
C         -1.30479         3.69589         1.29278
C         -0.03953         2.98860         1.55799
C          1.18248         3.63398         1.03449
C          2.23475         2.75454         0.44901
C          3.30902         3.51462        -0.21137
C          5.15990         2.39739        -0.06363
C          6.17780         3.48795         0.22504
C          7.51940         2.84584         0.28205
C          8.60855         3.41651        -0.38792
C          9.88474         2.72459        -0.30352
C         -8.64980         5.13119        -0.07715
C         -7.57202         5.90651         0.51763
C         -6.35829         5.15520         1.02610
C         -5.06974         5.90124         1.39242
C         -3.80254         5.19578         0.93147
C         -2.51593         5.94881         1.06656
C         -1.28301         5.15691         1.30262
C          0.06209         5.85915         1.11960
C          1.23595         4.98434         0.86238
C          2.49179         5.73359         0.48252
C          3.58287         4.81778        -0.00498
C          4.82848         5.51721        -0.49790
C          6.05040         4.66457        -0.69014
C          7.18239         5.25084        -1.30522
C          8.45682         4.60058        -1.14796
C         -7.42703         7.33586         0.19141
C         -6.27372         8.03117         0.40850
C         -5.07269         7.40358         1.02878
C         -3.74340         8.09447         0.83910
C         -2.47851         7.29818         0.89111
C         -1.16378         8.08575         0.83528
C          0.02285         7.20188         0.48474
C          1.01317         7.61081        -0.36430
C          2.16689         6.71656        -0.64068
C          3.16921         7.06726        -1.69296
C          4.51471         6.38482        -1.69901
C          5.71726         7.02221        -2.34078
C          7.03955         6.49202        -1.98636
C         -6.16993         9.41908        -0.00146
C         -4.97498        10.06026        -0.12267
C         -3.71703         9.40534         0.14356
C         -2.52469         9.96656        -0.23481
C         -1.26684         9.27728        -0.10418
C         -0.20878         9.69842        -0.86614
C          0.97692         8.89189        -1.06630
C          1.94869         9.26357        -1.95973
C          2.99913         8.33207        -2.53577
C          4.32051         9.01829        -2.82752
C          5.51892         8.40724        -2.82660
C        -10.99304        -0.51085        -0.83381
C         -9.74388        -1.26247        -0.81473
C         -8.53032        -0.53268        -0.50101
C         -7.30806        -1.26273        -0.35358
C         -6.09719        -0.50919         0.00319
C         -4.82430        -1.29288         0.19746
C         -3.76282        -0.69707         1.06643
C         -2.45737        -1.44813         1.14563
C         -1.18192        -0.67092         1.15138
C          0.10626        -1.42981         1.26348
C          1.27347        -0.76548         1.55496
C          2.57115        -1.51154         1.81621
C          3.81558        -0.68541         1.47571
C          5.11651        -1.38903         1.68993
C          6.46917        -0.64182         1.71571
C          7.57397        -1.30016         0.87673
C          8.75596        -0.60943         0.68332
C          9.93543        -1.28871         0.18744
C         11.20381        -0.58194         0.11199
C         -9.69609        -2.62867        -1.00010
C         -8.45811        -3.35714        -0.95917
C         -7.24283        -2.62984        -0.63143
C         -5.98452        -3.33211        -0.57990
C         -4.82231        -2.74919        -0.07790
C         -3.60069        -3.50426         0.07715
C         -2.42348        -2.87741         0.73189
C         -1.09746        -3.52894         0.61936
C          0.07548        -2.85491         0.96825
C          1.37358        -3.60174         0.74576
C          2.63694        -2.89713         1.18181
C          3.82540        -3.56459         1.07932
C          5.11670        -2.86836         1.38228
C          6.31990        -3.44366         0.73028
C          7.45527        -2.68317         0.45564
C          8.60423        -3.30799        -0.19552
C          9.84815        -2.59776        -0.22902
C         -8.42963        -4.73746        -1.15997
C         -7.20660        -5.47366        -1.19747
C         -5.94801        -4.70756        -1.10137
C         -4.63884        -5.47606        -1.00861
C         -3.48819        -4.81667        -0.35988
C         -2.28247        -5.58406        -0.10085
C         -1.12584        -4.93510         0.35641
C         -0.03719        -5.78147         0.95777
C          1.29668        -5.07774         1.16783
C          2.59519        -5.84773         1.08755
C          3.92558        -5.07846         1.31436
C          5.19122        -5.77491         0.68897
C          6.13300        -4.74939         0.07574
C          7.30457        -5.34041        -0.72626
C          8.54938        -4.59928        -0.68969
C         -7.15091        -6.85284        -1.33757
C         -5.91450        -7.58525        -1.26819
C         -4.71061        -6.94201        -1.03038
C         -3.39957        -7.67689        -1.07510
C         -2.29030        -7.01935        -0.27479
C         -1.16179        -7.78376         0.01739
C          0.07243        -7.15267         0.35570
C          1.30231        -7.79207         0.13237
C          2.55194        -7.14356         0.36681
C          3.72786        -7.61807        -0.29234
C          4.94185        -6.93592        -0.24279
C          6.12585        -7.50436        -0.86937
C          7.29053        -6.78610        -0.97906
C         -5.93005        -9.04082        -1.35682
C         -4.81035        -9.77883        -1.15194
C         -3.52799        -9.16359        -0.84456
C         -2.46550        -9.90149        -0.44577
C         -1.18378        -9.29353         0.04687
C          0.06608        -9.84113        -0.57491
C          1.26861        -9.12305        -0.50943
C          2.42999        -9.62721        -1.08971
C          3.62040        -8.75368        -1.30036
C          4.90382        -9.53884        -1.41230
C          6.08250        -8.91115        -1.26422
O         -4.48363         8.18759         2.10761
O          1.77799         1.62426        -0.39508
O          1.94481         0.87938         3.16443
H          2.08540        -0.00955         3.57502
O          5.14658        -2.38261         2.77424
O          2.47104         7.93084        -3.82976
H          1.96985         7.09611        -3.68006
O         -5.74384         1.50215         2.75662
H         -5.01001         1.74143         3.36512
O          5.24098         6.46926         0.53070
H          5.49605         5.93029         1.31751
O         -3.76750         4.41132        -0.29476
O         -5.06308        -4.84544        -2.27403
O          1.86272        -5.64402         2.35816
O         -2.94096        -7.53755        -2.47129
H         -3.21590        -6.65168        -2.79380
O          4.17150         2.71778        -0.98614
O         -0.58901        -6.05259         2.29685
H          0.18824        -6.11609         2.90522
O         -2.69904         2.38953         2.85374
O         -0.01824         2.42260         2.95122
O          3.41704        -8.11399        -2.61512
H          4.20698        -7.55939        -2.79298
O         -4.96071         5.79880         2.82858
H         -5.81083         6.11367         3.20877
O         -1.18394         0.33911         0.08350
O          2.57311        -1.74745         3.25934
H          3.37775        -2.29334         3.45547
O          2.86815         6.51631         1.63189
H          2.93804         5.92190         2.40721
O          6.96877        -0.68497         3.07302
H          6.65032        -1.53449         3.46395
O         -0.92914         8.60895         2.16767
H         -0.83973         7.83063         2.76510
O          5.81045         3.99317         1.56916
H          6.14453         3.30940         2.21456
O         -0.49934         5.75890         2.45456
O         -1.10774        -9.67334         1.47242
H         -0.40397        -9.13027         1.88849
O          5.90692        -6.39086         1.78333
H          5.45455        -6.02397         2.60811
O          2.10025         6.08598        -1.96507
O          1.47549        -3.74233        -0.71980
H          1.50548        -2.84394        -1.11304
O          9.37331         0.80642         2.50515
H          8.61187         0.47053         3.03864
O         -9.44805         1.65297        -2.44437
H         -9.36042         0.72382        -2.74903
O          6.88859         1.71946         2.38304
O         -2.59871        -2.48239         2.15903
O          4.89883         5.93286        -3.00403
O          4.16368        -5.00877         2.69525
O         -7.40256         5.55330         1.97053
O          6.14916        -4.66068        -1.37360
O         -5.01383        -0.52936        -1.04557
O         -4.11668        -0.34392         2.43570
H         12.11093        -1.16995        -0.08993
H         12.19691         1.31059         0.00039
H         10.73967         3.14556        -0.85436
H          9.34169         5.04053        -1.62971
H          7.93791         7.02912        -2.32548
H          6.41885         8.97611        -3.10901
H          4.25748        10.06240        -3.17155
H          1.83488        10.23164        -2.47381
H         -0.32497        10.60052        -1.48755
H         -2.53102        10.92570        -0.77668
H         -4.94622        11.09510        -0.49469
H         -7.09977         9.93670        -0.27907
H         -8.27516         7.83602        -0.30052
H         -9.46441         5.66029        -0.59340
H        -10.63433         3.62618        -0.90451
H        -11.94280         1.39704        -0.85306
H        -11.93824        -1.07470        -0.83003
H        -10.62367        -3.18337        -1.20740
H         -9.37560        -5.27720        -1.31756
H         -8.08663        -7.42048        -1.45137
H         -6.89080        -9.53556        -1.56037
H         -4.86244       -10.87788        -1.16447
H         -2.57009       -10.99174        -0.32972
H          0.06458       -10.84993        -1.01378
H          2.40346       -10.60775        -1.58892
H          4.85561       -10.59189        -1.72600
H          7.03640        -9.43242        -1.43401
H          8.21198        -7.27287        -1.33231
H          9.47684        -5.10161        -1.00313
H         10.73610        -3.10891        -0.62929
