         204
 CSIRO Nanostructure Databank - Neutral Graphene Oxide Data Set
C        -11.02178         0.63239        -0.58288
C         -9.79518         1.39448        -0.54325
C         -8.49572         0.64826        -0.74264
C         -7.29118         1.38884        -0.22042
C         -6.09847         0.68165         0.09489
C         -4.92057         1.40043         0.40868
C         -3.75817         0.64473         1.03037
C         -2.42960         1.41217         0.94137
C         -1.20048         0.70522         0.38333
C          0.11489         1.42537         0.75044
C          1.30467         0.68693         0.17020
C          2.48606         1.42541        -0.11858
C          3.68856         0.72738        -0.44143
C          4.94661         1.44803        -0.43474
C          6.16905         0.75590        -0.47044
C          7.37588         1.39686         0.15667
C          8.69039         0.74771        -0.15884
C          9.87557         1.43798         0.14039
C         11.10710         0.67212         0.28306
C         -9.79280         2.76270        -0.47302
C         -8.56504         3.51851        -0.36756
C         -7.32079         2.79630        -0.18500
C         -6.12091         3.52710         0.05388
C         -4.90747         2.82251         0.34355
C         -3.70316         3.58184         0.50046
C         -2.42691         2.89052         0.74702
C         -1.16514         3.57532         0.36461
C          0.04233         2.88187         0.31744
C          1.26016         3.58158         0.05785
C          2.48442         2.85639        -0.07422
C          3.70982         3.57231        -0.22149
C          4.94074         2.86879        -0.27249
C          6.19946         3.58730        -0.19647
C          7.40732         2.88793        -0.02221
C          8.64045         3.58940         0.11479
C          9.85115         2.84671         0.29719
C         -8.57137         4.90643        -0.35433
C         -7.36650         5.65773        -0.20287
C         -6.13273         4.95218        -0.00016
C         -4.91754         5.67945         0.10653
C         -3.68488         4.97281         0.29117
C         -2.44082         5.69791         0.22984
C         -1.19873         4.99661         0.19945
C          0.02250         5.71046         0.04300
C          1.25220         5.00190        -0.04618
C          2.48615         5.71733        -0.22211
C          3.68777         5.00065        -0.30921
C          4.95704         5.70286        -0.54894
C          6.21665         5.00089        -0.28383
C          7.42942         5.72529        -0.12407
C          8.62647         5.00793         0.07485
C         -7.35936         7.06819        -0.23771
C         -6.16266         7.79750        -0.12745
C         -4.91986         7.10079         0.01721
C         -3.69290         7.82223         0.06495
C         -2.45244         7.11724         0.12442
C         -1.22229         7.84185         0.07417
C          0.01162         7.14505         0.01731
C          1.24100         7.86451        -0.03812
C          2.47796         7.16838        -0.18610
C          3.68305         7.89947        -0.18964
C          4.95792         7.22896        -0.46947
C          6.22823         7.89779        -0.12198
C          7.39694         7.17327        -0.04843
C         -6.13996         9.23518        -0.16785
C         -4.96422         9.93070        -0.09325
C         -3.69635         9.25449         0.00576
C         -2.48508         9.95857         0.04003
C         -1.23429         9.28077         0.06741
C         -0.00775         9.97839         0.09707
C          1.23077         9.29654         0.06064
C          2.47211         9.99083         0.14016
C          3.68643         9.30737         0.04787
C          4.96532         9.98551         0.17354
C          6.15566         9.32065         0.13085
C        -11.01821        -0.72767        -0.52812
C         -9.78787        -1.48048        -0.34282
C         -8.55167        -0.79020        -0.30967
C         -7.34937        -1.47921        -0.01788
C         -6.10983        -0.77307         0.13977
C         -4.91777        -1.50740         0.39915
C         -3.66178        -0.80299         0.59390
C         -2.45867        -1.49155         0.60141
C         -1.17977        -0.76389         0.73454
C          0.10877        -1.49517         0.48090
C          1.29972        -0.70692         0.08891
C          2.47096        -1.41640        -0.31224
C          3.66068        -0.67934        -0.55281
C          4.87373        -1.39916        -0.93835
C          6.21133        -0.61972        -0.92167
C          7.47746        -1.42003        -0.82911
C          8.74754        -0.68357        -0.48313
C          9.92047        -1.45504        -0.02140
C         11.11380        -0.69173         0.27580
C         -9.82015        -2.86993        -0.15472
C         -8.62414        -3.60619         0.04437
C         -7.38268        -2.89826         0.13579
C         -6.17152        -3.62249         0.36101
C         -4.93348        -2.91745         0.47815
C         -3.67358        -3.61727         0.97800
C         -2.40200        -2.92877         0.53229
C         -1.21119        -3.62205         0.29790
C          0.04715        -2.92456         0.11981
C          1.20094        -3.55423        -0.34637
C          2.44977        -2.84424        -0.48881
C          3.68074        -3.53612        -0.71171
C          4.90417        -2.85668        -0.77811
C          6.16540        -3.55786        -0.60849
C          7.39607        -2.86934        -0.54175
C          8.59833        -3.54982        -0.15421
C          9.83822        -2.82369         0.04696
C         -8.64148        -5.02339         0.14183
C         -7.45002        -5.75343         0.28575
C         -6.22919        -5.03885         0.42194
C         -4.98002        -5.81212         0.53025
C         -3.67323        -5.12278         0.73220
C         -2.42795        -5.80376         0.28915
C         -1.22229        -5.07841         0.15703
C         -0.04648        -5.77443        -0.22537
C          1.14983        -5.00313        -0.64738
C          2.43004        -5.75050        -0.92461
C          3.74847        -5.00931        -1.07276
C          4.92041        -5.69772        -0.41499
C          6.13301        -4.96632        -0.31897
C          7.33202        -5.64272         0.07598
C          8.54876        -4.91696         0.14250
C         -7.44703        -7.20925         0.27849
C         -6.28437        -7.93286         0.11160
C         -5.01790        -7.18175        -0.05907
C         -3.72292        -7.91046        -0.18706
C         -2.45100        -7.18823         0.03757
C         -1.25142        -7.89794        -0.18073
C         -0.04451        -7.17559        -0.33004
C          1.17116        -7.94690        -0.81141
C          2.45691        -7.19002        -0.60381
C          3.62648        -7.81239        -0.21233
C          4.87209        -7.05966        -0.10056
C          6.06923        -7.73205         0.31938
C          7.27274        -7.02365         0.39051
C         -6.20193        -9.36672         0.03441
C         -5.00384       -10.04012        -0.07972
C         -3.73023        -9.38368        -0.14057
C         -2.50903       -10.05081        -0.13584
C         -1.26675        -9.35522        -0.21307
C         -0.03266       -10.03537        -0.15129
C          1.19113        -9.35163        -0.25788
C          2.41731        -9.95185         0.07653
C          3.62046        -9.22664         0.11190
C          4.84378        -9.84769         0.52135
C          6.01185        -9.13897         0.62425
O         -1.34028         0.74086        -1.06362
H         -1.15076         1.65274        -1.37352
O         -0.36511        -1.17810         1.85304
O         -4.42320        -7.33007        -1.38297
O         -4.11207         0.55323         2.44304
H         -3.68236         1.31932         2.89220
O          4.97666         6.53331        -1.76231
O          1.52785        -5.38128        -2.04151
O         -3.69386        -3.41434         2.42327
H         -4.15507        -4.19888         2.80522
O         -2.24649         2.25467         2.12053
O          5.49267        -0.88664        -2.16392
O          1.00340        -8.08828        -2.26309
H          1.04288        -7.17215        -2.63075
O          8.40535        -1.03154        -1.89601
O         -8.30791         0.59307        -2.21261
H         -8.29977         1.51976        -2.53513
O         -4.32918        -5.82648         1.86356
O          0.30887         1.42512         2.17897
H         -0.50303         1.81230         2.58661
O          4.06970        -5.03812        -2.49640
H          3.22987        -4.85455        -2.97567
O          7.20786         1.15902         1.63046
H          7.89047         1.70032         2.08369
H         12.04521        -1.23950         0.48368
H         12.03616         1.22336         0.49090
H         10.79169         3.38774         0.47571
H          9.57143         5.55757         0.19966
H          8.34012         7.69622         0.17364
H          7.09655         9.86894         0.28873
H          4.95387        11.07052         0.35506
H          2.46874        11.08288         0.27402
H         -0.01460        11.07777         0.14125
H         -2.49688        11.05863         0.01755
H         -4.97035        11.03020        -0.12702
H         -7.09496         9.77312        -0.26108
H         -8.30989         7.60710        -0.36850
H         -9.52282         5.44576        -0.47623
H        -10.74673         3.31245        -0.44648
H        -11.97390         1.18223        -0.63397
H        -11.96601        -1.28508        -0.55574
H        -10.78211        -3.40253        -0.19207
H         -9.60072        -5.55482         0.05339
H         -8.41401        -7.73079         0.34486
H         -7.13666        -9.94403         0.09540
H         -5.01395       -11.14039        -0.10500
H         -2.49342       -11.15092        -0.09559
H         -0.02871       -11.11663         0.05815
H          2.42486       -11.00707         0.39169
H          4.82944       -10.92137         0.76039
H          6.93688        -9.64301         0.94037
H          8.19417        -7.54713         0.68634
H          9.46631        -5.43660         0.45635
H         10.72436        -3.40580         0.34392
