         349
 CSIRO Nanostructure Databank - Neutral Graphene Oxide Data Set
C          1.54153         1.91413         1.20775
C          1.51930         3.35328         1.45590
C          2.70176         1.24129         1.06436
C          2.62663         4.11206         1.25361
C          1.45260         6.36755         1.53843
C          1.48297         7.73834         1.51226
C          2.67654         5.58517         1.45849
C          2.64666         8.47718         1.14790
C          1.85483        10.65487         2.17692
C          1.88442        11.99299         2.22263
C          2.51662         9.98019         0.99425
C          2.54956        12.73993         1.11590
C          1.70950        15.08001         1.94040
C          1.77886        16.43659         1.90443
C          2.45639        14.24265         0.97736
C          2.49296        17.09530         0.83037
C          2.54858        18.54190         0.69125
C          4.00476         1.99325         1.25350
C          3.82916         3.41034         0.63970
C          5.22990         1.29114         0.71715
C          5.15732         4.18562         0.69813
C          3.94528         6.37503         0.99480
C          3.79892         7.81122         0.71886
C          5.05113         5.65340         0.34658
C          4.88470         8.48426         0.06499
C          3.90266        10.64086         0.82868
C          3.75188        12.11828         0.53363
C          4.74169         9.95466        -0.24696
C          4.76222        12.82198        -0.10907
C          3.50733        14.90628         0.16040
C          3.16903        16.28531        -0.06677
C          4.64307        14.26337        -0.34188
C          4.82546        17.33345        -0.92447
C          3.59493        19.24104         0.15618
C          4.84207        18.66096        -0.33604
C          6.30247         1.96925         0.17184
C          6.14712         3.41656        -0.14728
C          7.49701         1.32441        -0.25910
C          7.26258         4.15840        -0.82424
C          6.05567         6.34813        -0.27887
C          6.02415         7.80225        -0.34846
C          7.17774         5.67344        -1.05145
C          7.23622         8.55249        -0.66823
C          6.05343        10.70256        -0.39253
C          5.99704        12.08676        -0.42832
C          7.26186         9.94438        -0.57818
C          7.24107        12.87268        -0.65007
C          5.77896        14.98450        -1.06185
C          5.89810        16.48556        -0.98839
C          7.09722        14.24279        -1.25637
C          7.19678        17.20247        -1.03437
C          6.06962        19.22884        -0.05511
C          7.28475        18.54218        -0.39466
C          8.61631         2.04322        -0.74467
C          8.54617         3.44871        -0.94345
C          9.88958         1.36761        -0.83253
C          9.74451         4.24266        -1.12718
C          8.48243         6.39870        -0.85017
C          8.48772         7.81062        -0.81685
C          9.69331         5.69880        -0.83639
C          9.72356         8.48836        -0.97533
C          8.61205        10.64191        -0.43456
C          8.55873        12.14780        -0.68463
C          9.66319         9.95655        -1.32581
C          9.76504        12.78209        -1.25278
C          8.41484        14.96949        -1.55225
C          8.46658        16.46439        -1.34615
C          9.73379        14.22759        -1.56210
C          9.73385        17.10175        -0.95810
C          8.52366        19.10149        -0.16575
C          9.75290        18.40737        -0.45742
C         11.09587         2.04603        -0.88184
C         11.11975         3.51587        -1.05368
C         12.35074         1.39568        -0.69808
C         12.27485         4.25680        -0.56096
C         10.90163         6.39686        -0.64562
C         10.93218         7.79324        -0.83829
C         12.04824         5.63966        -0.01506
C         12.29786         8.36440        -1.19317
C         10.99013        10.66662        -1.24934
C         10.97057        12.06774        -1.35101
C         12.29902         9.93627        -1.43966
C         12.25571        12.80504        -1.72567
C         11.02626        14.97013        -1.43998
C         10.98958        16.45160        -1.36710
C         12.21446        14.28555        -1.39926
C         12.28962        17.22042        -1.23588
C         10.99783        19.03325        -0.13199
C         12.25078        18.50323        -0.45261
C         13.51566         2.11069        -0.42256
C         13.46103         3.56775        -0.22509
C         14.74804         1.42488        -0.24405
C         14.58246         4.25277         0.26733
C         13.30764         6.46666         0.21754
C         13.37792         7.89369        -0.20813
C         14.57548         5.72264         0.65198
C         14.70656         8.54990        -0.28917
C         13.40244        10.70266        -0.69304
C         13.43626        12.15917        -1.00037
C         14.72793        10.05932        -0.24460
C         14.74426        12.84067        -1.10818
C         13.49088        14.97335        -1.27808
C         13.52261        16.37993        -1.27673
C         14.74648        14.25661        -1.26587
C         14.75536        17.02604        -1.44440
C         13.40237        19.13643         0.09800
C         14.70657        18.92741        -0.41768
C         15.90578         2.08430         0.16180
C         15.81734         3.51245         0.53854
C         17.15687         1.42705         0.19317
C         17.11850         4.30020         0.65462
C         15.87238         6.41932         0.20550
C         15.87920         7.84502        -0.13036
C         17.06045         5.75807         0.36409
C         17.15665         8.51383        -0.38083
C         15.92691        10.68358        -0.92962
C         15.93665        12.05239        -1.19169
C         17.13590         9.84150        -1.03874
C         17.18512        12.73372        -1.63179
C         15.98805        14.97136        -1.27693
C         16.00017        16.37677        -1.31140
C         17.24977        14.24600        -1.56591
C         17.24470        17.17618        -1.24257
C         15.94749        19.02960         0.17973
C         17.17721        18.56258        -0.48086
C         18.37746         2.10836         0.33364
C         18.39939         3.56751         0.45104
C         19.59813         1.40334         0.18501
C         19.58775         4.24332         0.43052
C         18.34279         6.50199         0.37427
C         18.36712         7.88369        -0.15988
C         19.62714         5.72644         0.47140
C         19.65086         8.53878        -0.38177
C         18.47794        10.50386        -1.32926
C         18.49553        11.98236        -1.62204
C         19.70739         9.84812        -0.84093
C         19.77234        12.76470        -1.47929
C         18.54943        14.93579        -1.32865
C         18.59770        16.46122        -1.41525
C         19.73034        14.23621        -1.20371
C         19.72079        17.04563        -0.57723
C         18.43679        19.07510         0.04607
C         19.65506        18.40312        -0.07740
C         20.84401         2.04975         0.21737
C         20.88145         3.49644         0.65361
C         22.05139         1.37004         0.00881
C         22.10426         4.22923         0.17815
C         20.88384         6.41301         0.10355
C         20.89503         7.79079        -0.15667
C         22.09365         5.64649         0.07985
C         22.15480         8.48131        -0.20978
C         21.03967        10.47308        -1.25202
C         21.06336        12.00952        -1.28937
C         22.21556         9.89496        -0.49371
C         22.28117        12.77457        -0.88684
C         20.96389        14.91268        -0.78159
C         20.90794        16.32350        -0.44250
C         22.15857        14.21796        -0.57780
C         22.10890        16.98239         0.01549
C         20.83444        19.05214         0.37380
C         22.08274        18.39733         0.39117
C         23.30343         2.04712        -0.03627
C         23.29662         3.50909         0.00089
C         24.51317         1.34312        -0.15013
C         24.52424         4.21160        -0.13226
C         23.33534         6.33937         0.00168
C         23.35197         7.76452         0.00624
C         24.54728         5.60440        -0.02343
C         24.60953         8.46741         0.13267
C         23.37440        10.62199        -0.23389
C         23.45981        12.03817        -0.37980
C         24.53261         9.93647         0.44972
C         24.62762        12.75425        -0.06527
C         23.36434        14.88799        -0.17973
C         23.31256        16.29178         0.06495
C         24.59350        14.18609        -0.03804
C         24.57989        17.09768         0.14298
C         23.22110        19.04064         0.88732
C         24.49292        18.29023         1.11421
C         25.77595         1.99366        -0.27268
C         25.76800         3.45990        -0.39922
C         27.00569         1.32785        -0.28518
C         27.09967         4.17948        -0.27522
C         25.81169         6.32622         0.22482
C         25.79698         7.79533         0.21379
C         27.10748         5.59482         0.19190
C         27.09296         8.52088         0.17407
C         25.84974        10.66948         0.32486
C         25.85542        12.02428         0.24729
C         27.10459         9.92643         0.74031
C         27.09979        12.76034         0.69284
C         25.81037        14.92884         0.24236
C         25.82355        16.28769         0.36766
C         27.10505        14.18677         0.20330
C         27.04700        17.02228         0.87168
C         25.71723        19.15054         0.97855
C         27.02036        18.53030         0.53799
C         28.26184         2.01460        -0.16193
C         28.30423         3.40210        -0.03578
C         29.52354         1.29051        -0.10512
C         29.52797         4.10680         0.50667
C         28.40491         6.30593         0.10666
C         28.39089         7.77975         0.04055
C         29.56761         5.60074         0.23273
C         29.66170         8.48776         0.30481
C         28.40440        10.65158         0.44263
C         28.40525        12.03234         0.43390
C         29.64673         9.91072         0.39114
C         29.64676        12.77298         0.45119
C         28.39648        14.93643         0.24405
C         28.36950        16.38173         0.51743
C         29.65409        14.19832         0.49913
C         29.52184        17.06282         0.82217
C         28.26463        19.18127         1.10542
C         29.44688        18.49145         1.16928
C         30.71854         1.95222        -0.03358
C         30.79404         3.38521         0.11383
C         31.96976         4.09702         0.03826
C         30.85248         6.28657         0.23954
C         30.86455         7.75372         0.32281
C         32.00448         5.52141         0.15896
C         32.07804         8.48226         0.43742
C         30.88138        10.61666         0.46235
C         30.87985        12.06321         0.51865
C         32.08367         9.86255         0.49014
C         32.07670        12.81303         0.65414
C         30.84663        14.92239         0.68142
C         30.81215        16.38205         0.84533
C         32.06072        14.19019         0.75641
C         31.94268        17.11411         1.14710
C         30.67918        19.16642         1.51408
C         31.87315        18.50722         1.46624
O         12.96010        11.66438         0.32095
O          6.13286         3.56623        -1.59205
O         19.02298         6.32951         1.67888
O         19.26577        12.34496        -2.80328
O         11.58651        17.18439        -2.51045
O         12.96313         7.56197         1.16420
O         17.18918        18.42666        -1.94912
O         27.79285        14.45844        -1.05395
O          7.76447        17.20761        -2.40471
O          3.56845        16.84218        -1.28123
O         26.45134         5.79200         1.48888
O         17.06660        13.52770        -2.84246
O         10.54303         3.95592        -2.32340
O         16.42575         3.83913         1.84638
O          6.13763        14.34340        -2.33607
O         26.48201         3.96963        -1.58673
O          8.11479        12.89271         0.54500
O          8.99589        14.54370        -2.81138
O         17.75109         9.78137        -2.37769
O         12.65139         7.73985        -2.40660
O          1.61391        13.34032         0.16459
O         27.70158         8.37030        -1.14809
O          3.73016         5.99983         2.40431
O         22.01466        12.47067        -2.31043
O         14.70442        18.38440        -1.72906
O         14.60145         5.76320         2.10078
H         14.29222         6.66213         2.35817
O         14.93182        10.37260         1.16904
H         14.23236        11.03116         1.40982
O         11.53332         5.34741         1.33859
H         11.70731         6.15348         1.87789
O          9.03707        10.44643         0.93246
H          8.68758        11.20431         1.45415
O         21.02885         3.45944         2.11941
H         20.17455         3.16166         2.49906
O          3.53159         3.27442        -0.76748
H          2.74199         2.69890        -0.85476
O         27.02643         9.80479         2.19806
H         27.04754        10.72748         2.55098
O         26.99568        16.89018         2.32863
H         26.07163        17.12501         2.61459
O          5.68842         4.16528         2.05356
H          5.14154         4.81397         2.57026
O          4.03895        10.05772        -1.51907
H          4.61832         9.69064        -2.22008
O          9.18640        10.07963        -2.69143
H          9.83998         9.64708        -3.28182
O         24.43281        17.71237         2.49163
H         24.28893        18.45866         3.11169
O          4.19106         2.08341         2.69049
H          4.98343         2.65702         2.83583
O          6.84871         5.87033        -2.45470
H          6.22732         5.14603        -2.70056
O         18.98860        16.72223        -2.79883
H         18.65610        17.62013        -3.02834
O         24.23021         9.98180         1.88925
H         25.04518         9.67279         2.35549
O         24.68617        17.69736        -1.20046
H         24.61245        16.97225        -1.85769
O         12.44238        12.73917        -3.14605
H         12.49519        11.78159        -3.39738
O         21.19823        10.03064        -2.63017
H         20.66585        10.63840        -3.19361
O         27.11502        18.75674        -0.89588
H         26.24807        18.47984        -1.29339
O          4.58503        10.48784         2.09647
H          5.49281        10.84602         1.99898
O         26.97374        12.80914         2.16130
H         27.64736        13.43562         2.50407
O          1.69730        10.24236        -0.16140
H          2.26288        10.16021        -0.96460
O         12.57381        10.08660        -2.85383
H         12.72897         9.12770        -3.17503
O         29.43608         3.99234         1.97196
H         29.49245         3.03886         2.19490
H          0.57777         1.38531         1.16792
H          0.57942         3.79799         1.81431
H          2.71329         0.14966         0.92866
H          0.48616         5.84547         1.57785
H          0.54418         8.29658         1.63917
H          1.37194        10.06171         2.96732
H          1.40119        12.55079         3.03824
H          1.05672        14.57866         2.66803
H          1.22476        17.04619         2.63225
H          1.74702        19.11855         1.18009
H          5.31594         0.20780         0.89964
H          3.57486        20.33840         0.24978
H          7.60136         0.24197        -0.08945
H          6.13273        20.19231         0.47149
H          9.90089         0.27679        -0.68555
H          8.58802        20.11775         0.25040
H         12.38761         0.29594        -0.71251
H         10.96014        19.99739         0.39732
H         14.79069         0.34783        -0.46518
H         13.25324        19.86162         0.91255
H         17.18124         0.34507        -0.00700
H         16.03652        19.38964         1.21371
H         19.55818         0.32142        -0.01512
H         18.41209        20.02296         0.60438
H         22.03152         0.28101        -0.15422
H         20.76529        20.09612         0.71363
H         24.48762         0.24245        -0.13346
H         23.11828        20.05063         1.31461
H         27.01627         0.22713        -0.26669
H         25.56586        20.20916         0.70333
H         29.50508         0.19659        -0.21478
H         28.25509        20.26754         1.28518
H         31.66036         1.38817        -0.11457
H         32.91723         3.56474        -0.13614
H         32.99013         6.00618         0.13472
H         33.03771         7.94878         0.46730
H         33.05140        10.37798         0.55158
H         33.04490        12.29684         0.69881
H         33.01536        14.71897         0.87889
H         32.92873        16.63143         1.18740
H         30.63818        20.23192         1.78339
H         32.80630        19.03647         1.70591
