         204
 CSIRO Nanostructure Databank - Neutral Graphene Oxide Data Set
C        -11.00770         0.75472        -0.84389
C         -9.79133         1.50720        -0.67219
C         -8.54680         0.76983        -0.50302
C         -7.33689         1.45114        -0.34154
C         -6.12681         0.74615        -0.06387
C         -4.93029         1.45495         0.23651
C         -3.72951         0.75235         0.50285
C         -2.51599         1.48069         0.82225
C         -1.30080         0.69487         1.13006
C          0.01365         1.43273         1.32013
C          1.28319         0.72941         1.06436
C          2.49157         1.47206         0.95079
C          3.76839         0.73234         0.99300
C          5.05320         1.48361         0.70205
C          6.23167         0.73818         0.25239
C          7.39274         1.42542        -0.10049
C          8.60518         0.69308        -0.36198
C          9.80212         1.41099        -0.64274
C         11.02384         0.66390        -0.83194
C         -9.79746         2.89379        -0.58740
C         -8.58664         3.64599        -0.43675
C         -7.27373         2.92327        -0.64755
C         -6.09842         3.60886        -0.00704
C         -4.97053         2.90663         0.32893
C         -3.79863         3.62416         0.95093
C         -2.48988         2.87557         0.84922
C         -1.27025         3.63100         0.96118
C         -0.01019         2.93372         1.27369
C          1.30222         3.66874         1.05833
C          2.53452         2.88077         0.84983
C          3.73659         3.58887         0.51038
C          4.97072         2.91104         0.38268
C          6.16262         3.58168        -0.00773
C          7.38601         2.86264        -0.17462
C          8.58509         3.55709        -0.51547
C          9.78119         2.81541        -0.72110
C         -8.58577         5.01109        -0.26588
C         -7.35686         5.75805        -0.09437
C         -6.13885         5.05924         0.08934
C         -4.92858         5.77111         0.29041
C         -3.70957         5.07040         0.53602
C         -2.48820         5.75040         0.54785
C         -1.24225         5.02844         0.74743
C          0.00408         5.73885         0.56449
C          1.24359         5.06392         0.59394
C          2.45809         5.71988         0.25015
C          3.69533         5.00357         0.22995
C          4.89772         5.69072        -0.10132
C          6.13360         4.99185        -0.20626
C          7.34953         5.68780        -0.52056
C          8.54608         4.97208        -0.65564
C         -7.36017         7.17145        -0.07911
C         -6.16508         7.89739         0.03095
C         -4.92628         7.19544         0.19217
C         -3.69685         7.89542         0.23427
C         -2.47051         7.17762         0.34946
C         -1.23981         7.87270         0.25029
C         -0.00544         7.15082         0.26592
C          1.20299         7.82726        -0.02645
C          2.43517         7.11182        -0.08706
C          3.64423         7.77931        -0.43009
C          4.86484         7.09639        -0.39063
C          6.10885         7.80316        -0.62264
C          7.30266         7.11605        -0.67371
C         -6.13545         9.33580        -0.02679
C         -4.95406        10.01993         0.01559
C         -3.69050         9.33109         0.11405
C         -2.47864        10.01076         0.06437
C         -1.23713         9.30548         0.08298
C         -0.02507         9.98163        -0.09301
C          1.20495         9.27085        -0.22693
C          2.37842         9.93552        -0.55473
C          3.59166         9.17676        -0.99776
C          4.89068         9.91831        -0.83384
C          6.05871         9.25697        -0.72401
C        -11.00793        -0.61211        -0.84976
C         -9.79453        -1.36483        -0.65238
C         -8.57541        -0.66058        -0.45557
C         -7.36314        -1.38285        -0.23681
C         -6.13691        -0.68277        -0.02647
C         -4.92261        -1.39940         0.17351
C         -3.70317        -0.67653         0.39689
C         -2.45722        -1.38445         0.48567
C         -1.26263        -0.73806         0.78671
C          0.01720        -1.43458         0.82688
C          1.28015        -0.70034         0.94487
C          2.50408        -1.40979         0.89029
C          3.76894        -0.74047         0.85139
C          4.95971        -1.41607         0.60948
C          6.11857        -0.72327        -0.05128
C          7.43178        -1.45676         0.01262
C          8.61574        -0.73850        -0.25738
C          9.85322        -1.45481        -0.45044
C         11.04797        -0.69659        -0.73385
C         -9.78904        -2.77770        -0.67423
C         -8.61089        -3.50463        -0.45800
C         -7.38841        -2.80374        -0.19595
C         -6.18292        -3.51681         0.06413
C         -4.96772        -2.83761         0.20066
C         -3.72903        -3.59669         0.28025
C         -2.43176        -2.84540         0.09822
C         -1.26382        -3.56134         0.73880
C          0.01087        -2.82273         0.75177
C          1.22410        -3.60789         0.54160
C          2.52160        -2.85153         0.60164
C          3.75002        -3.63775         0.87243
C          5.05085        -2.86886         0.78545
C          6.25758        -3.60833         0.37206
C          7.44219        -2.87573         0.07835
C          8.66831        -3.58930        -0.18018
C          9.85964        -2.84807        -0.42098
C         -8.58111        -4.94443        -0.58718
C         -7.44151        -5.67365        -0.33810
C         -6.26082        -4.99828         0.32895
C         -4.95712        -5.72710         0.11622
C         -3.72329        -4.97528         0.21996
C         -2.41845        -5.70405        -0.02417
C         -1.23476        -5.05109         0.66523
C          0.05441        -5.78963         0.62902
C          1.24688        -5.08689         0.67133
C          2.51846        -5.77237         0.63463
C          3.72916        -5.09666         0.62901
C          4.99992        -5.77275         0.44067
C          6.22021        -5.01562         0.26890
C          7.43545        -5.71498        -0.07154
C          8.63817        -4.99530        -0.23649
C         -7.37893        -7.08996        -0.56790
C         -6.20108        -7.80237        -0.40362
C         -4.97341        -7.09598        -0.06861
C         -3.74990        -7.89873         0.15542
C         -2.45355        -7.17266         0.32312
C         -1.18564        -7.90816         0.16396
C          0.04159        -7.22892         0.38445
C          1.25338        -7.94216         0.34694
C          2.48996        -7.26332         0.90043
C          3.80301        -7.97068         0.56075
C          5.01566        -7.16791         0.27846
C          6.20317        -7.83753        -0.15852
C          7.38931        -7.11752        -0.29626
C         -6.12735        -9.22584        -0.64783
C         -4.95929        -9.93587        -0.59265
C         -3.70045        -9.31841        -0.24638
C         -2.48886        -9.96796        -0.32828
C         -1.21644        -9.30257        -0.10830
C          0.00275        -9.98644        -0.23761
C          1.25158        -9.33307        -0.01149
C          2.46454       -10.02934        -0.18753
C          3.76419        -9.40214         0.06007
C          4.97633        -9.92882        -0.59416
C          6.13071        -9.22202        -0.59866
O          5.74755        -0.75611        -1.50704
H          6.52574        -0.42532        -2.00681
O         -1.55935        -4.36864         1.92143
O         -4.08821         3.65658         2.40042
H         -3.27924         3.97428         2.85613
O          1.93605        -3.18381        -0.70297
O          2.33168        -7.34681         2.35332
H          2.76394        -8.19139         2.62554
O          3.41811         9.01137        -2.46467
H          2.57202         8.53313        -2.59961
O          4.03986        -9.07014         1.50417
O         -0.74180         0.93643         2.47609
O         -6.51518        -5.10571         1.78052
H         -6.30884        -6.02637         2.05004
O          0.71831         3.51302         2.40633
O         -2.15849        -5.65996        -1.45561
H         -2.08529        -4.70473        -1.71130
O         -7.02553         2.99754        -2.10605
H         -7.80013         2.58904        -2.54847
O         -3.19618        -7.58532         1.50382
O          4.46653        -3.29167         2.08512
O          4.63682         1.16520         2.09782
O         -2.14700        -2.87619        -1.35315
H         -2.83917        -2.34443        -1.80155
H         11.99078        -1.24465        -0.87847
H         11.94791         1.21923        -1.05032
H         10.71051         3.35524        -0.95657
H          9.47302         5.51066        -0.90329
H          8.24289         7.66150        -0.84522
H          7.01138         9.80709        -0.68306
H          4.87302        11.01629        -0.90457
H          2.35401        11.02453        -0.71453
H         -0.02525        11.07437        -0.21980
H         -2.46724        11.10552        -0.04470
H         -4.94677        11.11814        -0.04645
H         -7.08763         9.87839        -0.12132
H         -8.31221         7.70944        -0.20171
H         -9.53925         5.56210        -0.25415
H        -10.75768         3.43248        -0.58819
H        -11.94889         1.30828        -0.97703
H        -11.94887        -1.16350        -0.99298
H        -10.72894        -3.31556        -0.86972
H         -9.48913        -5.45365        -0.94717
H         -8.28300        -7.60703        -0.92558
H         -7.06014        -9.74302        -0.91863
H         -4.96392       -11.01024        -0.83035
H         -2.46741       -11.02908        -0.62164
H          0.00310       -11.05815        -0.48616
H          2.44329       -11.06066        -0.56975
H          4.93249       -10.93185        -1.04412
H          7.03849        -9.65806        -1.04230
H          8.30265        -7.63480        -0.62613
H          9.56540        -5.54604        -0.45453
H         10.79604        -3.39186        -0.61668
