         324
 CSIRO Nanostructure Databank - Neutral Graphene Oxide Data Set
C         30.44006        57.22875        -0.64709
C         30.42505        58.63313        -0.57972
C         29.21441        59.37086        -0.68130
C         30.40982        61.48241        -0.52629
C         29.22469        60.76926        -0.67041
C         32.88565        52.94261        -0.66152
C         32.87052        54.35800        -0.59003
C         31.66385        55.08962        -0.65308
C         32.90230        57.22199        -0.49001
C         31.65303        56.49948        -0.59354
C         32.87582        58.64813        -0.41705
C         31.67225        59.34775        -0.44428
C         32.82890        61.50712        -0.09934
C         31.66192        60.80865        -0.36750
C         35.36489        48.63824        -0.68993
C         35.31978        50.06239        -0.52255
C         34.12340        50.78783        -0.66117
C         35.32274        52.93501        -0.40211
C         34.08589        52.20943        -0.57047
C         35.32464        54.34385        -0.37204
C         34.11825        55.07969        -0.46594
C         35.37795        57.22640        -0.19166
C         34.12366        56.50849        -0.43030
C         35.39297        58.67013        -0.10111
C         34.15906        59.44033        -0.49617
C         35.37013        61.52650         0.09162
C         34.08222        60.76032         0.26535
C         37.81317        44.33704        -0.52244
C         37.80056        45.73361        -0.59977
C         36.60398        46.48152        -0.74706
C         37.77936        48.56881        -0.13082
C         36.54482        47.88773        -0.59158
C         37.77438        50.07063         0.08525
C         36.52955        50.80098        -0.23882
C         37.79724        52.89271         0.09751
C         36.53558        52.18508        -0.24205
C         37.80572        54.36943         0.16810
C         36.62895        55.09149        -0.44001
C         37.79621        57.20603         0.49880
C         36.55323        56.52932        -0.02905
C         37.83822        58.68594         0.18910
C         36.58419        59.37531         0.05327
C         37.82849        61.53097         0.06699
C         36.57637        60.84519         0.04178
C         40.17793        40.06070        -0.06190
C         40.22302        41.41679        -0.21708
C         39.02473        42.20030        -0.34005
C         40.26820        44.32216        -0.12202
C         39.02240        43.59886        -0.34495
C         40.32722        45.68698        -0.22497
C         39.10944        46.43603        -0.60804
C         40.30447        48.65183         0.05757
C         39.10143        47.94469        -0.40379
C         40.27156        50.05578         0.24235
C         39.06903        50.75811         0.08767
C         40.34171        52.94661         0.07439
C         39.08277        52.20364        -0.29876
C         40.34056        54.33775         0.09648
C         39.09613        55.10121         0.09003
C         40.35101        57.22477        -0.02105
C         39.07201        56.46435         0.17029
C         40.30216        58.69260         0.33516
C         39.04265        59.38600         0.21503
C         40.28720        61.53040         0.21830
C         39.05144        60.84317         0.16320
C         42.88220        36.24226        -1.73398
C         42.74621        37.40050        -0.91843
C         41.54695        38.06660        -0.75851
C         42.67259        40.00217         0.31452
C         41.37964        39.20478         0.23580
C         42.73655        41.34386         0.14168
C         41.54384        42.14556        -0.35763
C         42.77184        44.28849         0.20623
C         41.47208        43.51785         0.32767
C         42.74827        45.73217         0.55716
C         41.59977        46.43325        -0.02679
C         42.75653        48.67087         0.61984
C         41.58664        47.96579         0.05088
C         42.75047        50.04399         0.65868
C         41.53282        50.79430         0.35624
C         42.87846        52.88538         0.19262
C         41.54560        52.18055         0.26509
C         42.81745        54.36261         0.51529
C         41.56840        55.07695         0.36108
C         42.74161        57.18000         0.91681
C         41.53600        56.45082         0.49949
C         42.73091        58.69882         0.86283
C         41.47647        59.39661         0.49887
C         42.76079        61.49561         0.38072
C         41.51324        60.84264         0.39416
C         45.43688        33.74374        -2.83780
C         44.20878        34.38613        -2.64731
C         45.32411        36.11487        -1.29030
C         44.11548        35.57257        -1.87915
C         45.27844        37.27846        -0.50305
C         43.95317        37.85256        -0.17107
C         45.18975        39.87139         0.85553
C         43.90300        39.18819         0.50586
C         45.18704        41.37563         0.89425
C         44.09398        42.03359         0.07142
C         45.14547        44.20871         1.10316
C         44.05979        43.55518         0.25223
C         45.15492        45.71959         0.99087
C         43.94412        46.41410         0.87492
C         45.19125        48.62188         1.27912
C         43.87484        47.88100         1.26560
C         45.16989        50.04581         1.43175
C         43.95095        50.77981         1.07066
C         45.11794        52.92635         1.41376
C         43.96320        52.14702         0.94717
C         45.25675        54.29544         0.82496
C         43.99470        55.05519         0.69114
C         45.22419        57.20910         0.85255
C         44.04036        56.49131         0.82440
C         45.22476        58.65720         0.81127
C         44.01695        59.38117         0.71157
C         45.24217        61.46391         0.37979
C         44.00865        60.79635         0.47857
C         46.60927        34.26792        -2.30479
C         47.76571        36.05380        -1.04640
C         46.58460        35.46990        -1.54065
C         47.74066        37.28955        -0.36403
C         46.47468        37.90738        -0.05752
C         47.67145        39.91167         0.72717
C         46.47097        39.19201         0.57900
C         47.65629        41.32156         1.03533
C         46.48764        42.07610         0.97814
C         47.66293        44.21943         1.20844
C         46.49037        43.51837         1.03119
C         47.72168        45.69534         1.11504
C         46.42199        46.46087         1.01225
C         47.61568        48.54193         1.69891
C         46.41948        47.90964         1.35682
C         47.58283        49.97333         2.02874
C         46.34720        50.73142         1.77678
C         47.64834        52.97176         1.94936
C         46.35180        52.20265         1.89277
C         47.73128        54.36707         1.46309
C         46.54948        55.02665         0.86269
C         47.70456        57.27048         1.23659
C         46.56176        56.53191         0.58280
C         47.71499        58.67796         1.05760
C         46.47206        59.35928         0.76915
C         47.71198        61.45491         0.46818
C         46.47091        60.76985         0.54177
C         48.94694        37.95854        -0.03123
C         50.16756        39.99847         0.58483
C         48.94384        39.27291         0.45859
C         50.20718        41.34293         0.98233
C         48.92956        41.98802         1.35088
C         50.18059        44.24459         1.34596
C         48.91729        43.50766         1.47439
C         50.14343        45.65198         1.56137
C         48.94946        46.36795         1.57674
C         50.14197        48.57682         1.83425
C         48.87198        47.78137         2.12131
C         50.15360        49.95917         1.78801
C         48.92209        50.71266         2.14895
C         50.19903        52.90568         1.71266
C         48.95599        52.21715         2.10258
C         50.19824        54.34257         1.62871
C         48.92775        55.04351         1.52884
C         50.22800        57.29069         1.70908
C         48.91158        56.52952         1.60707
C         50.19534        58.83958         1.67225
C         48.92615        59.42302         1.09118
C         50.17685        61.49919         0.52865
C         48.92907        60.79737         0.72473
C         51.38759        42.11226         0.98443
C         52.62035        44.25721         1.07502
C         51.40317        43.52560         1.17742
C         52.66799        45.65129         1.27693
C         51.44341        46.33916         1.75622
C         52.63770        48.56456         1.36875
C         51.43109        47.85628         1.80727
C         52.59442        49.97222         1.22260
C         51.35798        50.70122         1.48951
C         52.61870        52.82987         1.23714
C         51.34817        52.12067         1.47768
C         52.64195        54.33188         1.17635
C         51.37855        55.07303         1.36002
C         52.50712        57.15687         0.68820
C         51.41799        56.51325         1.26082
C         52.64901        58.62753         0.68721
C         51.47022        59.46588         1.10255
C         52.61626        61.47425         0.16588
C         51.40217        60.86057         0.59634
C         53.82762        46.40365         1.06428
C         54.98844        48.53839         0.65493
C         53.83249        47.83733         1.06593
C         54.97743        49.94531         0.49135
C         53.76416        50.63707         0.78794
C         54.90895        52.81465         0.07031
C         53.69482        52.07999         0.52923
C         54.90239        54.29695         0.10830
C         53.74768        54.97340         0.43566
C         54.74807        57.06578        -0.61337
C         53.57536        56.37085         0.04060
C         54.77971        58.54854        -0.60176
C         53.74862        59.27519        -0.08108
C         54.95404        61.38213        -0.59268
C         53.76502        60.73861        -0.14812
C         56.14030        50.65800         0.06250
C         57.35036        52.79072        -0.28806
C         56.18533        52.07443        -0.06778
C         57.41295        54.29233        -0.15415
C         56.08020        54.99132        -0.34876
C         57.22593        57.06180        -1.05959
C         56.02676        56.32874        -0.68293
C         57.19546        58.41347        -1.27277
C         55.90248        59.19550        -1.37359
C         57.24736        61.30635        -1.47488
C         56.05838        60.67046        -1.07881
C         58.50208        54.92514        -0.96599
C         59.52287        56.90549        -1.98362
C         58.46193        56.28206        -1.30974
C         59.37334        58.31681        -2.48254
C         58.51083        59.11633        -1.50278
C         59.53286        61.18223        -2.39788
C         58.39864        60.58015        -1.87149
C         60.66818        59.04301        -2.74963
C         60.69126        60.40358        -2.74044
O         44.95167        40.61474         2.10824
O         51.62539        47.01902         3.02670
O         41.94850        47.26356        -1.19997
O         46.12584        54.28002        -0.36658
O         53.10321        53.60121         2.38498
O         37.68160        53.57819         1.38887
O         53.65040        56.53908        -1.44269
O         39.23697        47.35825        -1.74259
O         48.30160        52.82928         3.25162
O         48.25619        50.24480         3.35748
O         45.37658        52.78471         2.84183
O         48.90727        42.63449         2.66380
O         53.86224        52.38358        -0.90315
O         49.56517        56.84797         2.91146
O         43.71674        37.95796         1.28967
O         42.58100        57.97579         2.14537
O         52.57065        59.23727         2.04542
O         47.24847        46.20368        -0.20611
O         37.65605        49.10886         1.21181
O         43.63975        44.16858        -0.99574
O         41.30117        43.24112         1.74005
H         41.47953        44.05761         2.25202
O         44.66336        43.92664         2.46615
H         45.39508        44.08738         3.09948
O         55.52313        59.13301        -2.78797
H         55.36298        58.19115        -3.01170
O         48.74886        47.60905         3.56783
H         48.70343        48.51840         3.95558
O         46.79651        56.70097        -0.85219
H         46.41646        55.89979        -1.28824
O         50.15772        59.28396         3.05527
H         51.04946        59.11053         3.43229
O         41.75219        42.38752        -1.77159
H         41.70746        41.52812        -2.23945
O         43.45860        47.80712         2.68675
H         43.55757        48.70349         3.07527
O         39.03028        52.21258        -1.77347
H         39.85058        51.79014        -2.10655
O         43.27581        52.83380        -1.22512
H         43.38949        51.89041        -1.46925
O         37.68833        57.12344         1.96825
H         36.86202        57.58316         2.23006
O         59.22677        59.08815        -0.23059
H         58.76665        59.69188         0.38914
O         33.97715        60.42443         1.69055
H         33.91238        61.26336         2.19298
O         57.76653        54.53884         1.26884
H         57.94601        55.49899         1.36389
O         36.98769        55.13207        -1.87712
H         36.23196        55.52973        -2.35960
O         34.32815        59.79319        -1.90455
H         34.37506        58.96109        -2.41971
O         40.57899        57.26384        -1.48868
H         40.45032        56.35348        -1.83385
O         58.64236        58.23978        -3.74756
H         59.21166        57.77939        -4.39854
O         44.56100        41.80607        -1.29389
H         44.09373        42.47815        -1.84917
O         41.11355        38.59359         1.52766
H         41.95294        38.14816         1.80505
H         29.49082        56.68251        -0.75366
H         28.26377        58.82919        -0.78941
H         30.39074        62.58157        -0.49973
H         28.27521        61.31460        -0.76922
H         31.93299        52.40636        -0.78717
H         30.70955        54.54872        -0.73904
H         32.79831        62.60346         0.00612
H         34.43059        48.12010        -0.95433
H         33.18343        50.24454        -0.84091
H         35.36442        62.62562         0.16625
H         36.86443        43.78499        -0.60053
H         35.66371        45.93234        -0.90803
H         37.82964        62.63164         0.06199
H         39.19790        39.56187         0.00656
H         38.06318        41.66883        -0.41846
H         40.29462        62.62689         0.12433
H         41.99350        35.84513        -2.24703
H         40.64986        37.67762        -1.26511
H         42.78694        62.58766         0.24722
H         45.47543        32.81910        -3.43083
H         43.29676        33.96810        -3.09707
H         45.26030        62.55081         0.21166
H         47.57093        33.76492        -2.48015
H         48.73373        35.57318        -1.25232
H         47.72037        62.52680         0.22088
H         49.90626        37.46828        -0.25468
H         51.10504        39.49303         0.30732
H         50.13249        62.54110         0.17722
H         52.34126        41.61083         0.75993
H         53.54635        43.72127         0.81856
H         52.61422        62.55840        -0.02446
H         54.74877        45.88425         0.75980
H         55.90302        47.97305         0.42247
H         55.01611        62.47900        -0.51798
H         57.06744        50.08678        -0.09804
H         58.30566        52.25119        -0.38448
H         57.28494        62.40795        -1.48351
H         59.40877        54.34111        -1.18699
H         60.41063        56.31500        -2.26100
H         59.54978        62.26842        -2.57121
H         61.55518        58.46905        -3.05951
H         61.60921        60.93831        -3.02746
