         300
 CSIRO Nanostructure Databank - Neutral Graphene Oxide Data Set
C         31.47325        32.18400        -3.17739
C         31.53562        33.41725        -3.07845
C         31.12055        36.39980        -2.39493
C         30.40912        37.13279        -3.14958
C         30.25081        40.53978         0.10518
C         30.24588        41.79218         0.21886
C         33.14107        29.19031        -1.64318
C         32.32177        29.78981        -2.34141
C         33.49682        31.88643        -1.89537
C         32.03504        31.24119        -2.13747
C         33.33695        33.36440        -1.47209
C         32.36276        34.29385        -2.25081
C         32.49889        35.99880        -0.29711
C         31.95153        35.59740        -1.68376
C         32.56072        37.49357        -0.09272
C         31.37430        38.19366        -0.12164
C         32.67600        40.44559        -0.04984
C         31.37533        39.66720        -0.23132
C         32.66608        41.93250         0.25623
C         31.32945        42.64109         0.48831
C         32.60932        44.51124         1.33413
C         31.56539        43.94715         0.92763
C         35.51048        27.39352        -0.38125
C         35.50355        28.85457        -0.70552
C         34.16775        29.57893        -0.63128
C         35.61295        31.60309        -0.52930
C         34.41665        31.09214        -0.94692
C         36.01557        33.03262        -0.78084
C         33.63394        33.81129        -0.07639
C         34.95216        35.87225         0.46843
C         33.79822        35.30275         0.02051
C         35.07590        37.36447         0.68566
C         33.78952        38.15926         0.45770
C         35.15935        40.37454         0.66990
C         33.85308        39.66208         0.48229
C         35.19845        41.71064         0.89978
C         33.95384        42.54514         0.77507
C         35.25061        44.65757         1.29683
C         33.94542        43.92875         1.41924
C         35.42493        46.08703         1.03294
C         37.60180        27.11206         0.84913
C         36.42059        26.71180         0.08612
C         37.55099        28.64807         1.12919
C         36.51685        29.47217         0.31987
C         37.87024        31.63433         0.55920
C         36.58567        30.83771         0.26932
C         37.64738        33.06201         1.10785
C         36.50569        33.77194         0.43764
C         37.86148        36.15770         1.11692
C         36.05921        34.98987         0.88158
C         37.73223        37.40209         0.56491
C         36.41722        38.12193         0.74210
C         37.71058        40.35832         0.44407
C         36.39352        39.58619         0.26130
C         37.72090        41.71565         0.58799
C         36.51999        42.44369         1.18253
C         37.73503        44.71370         0.85378
C         36.43607        43.88763         0.63636
C         37.66501        46.09614        -0.00776
C         36.36037        46.66382         0.47342
C         40.04536        24.56239        -0.45927
C         39.09682        25.12714         0.08423
C         40.27188        27.00208         1.17009
C         38.87751        26.34693         0.85106
C         40.28769        28.55446         0.88547
C         38.93186        29.34513         0.72974
C         40.23159        31.54259         1.54727
C         38.88218        30.81643         1.39810
C         40.23464        33.06891         1.59480
C         38.91572        33.80944         1.44959
C         40.29826        35.91263         0.65189
C         38.99978        35.23805         0.96541
C         40.27339        37.39567         0.31882
C         38.95575        38.11293         0.05920
C         40.34423        40.32638         0.12361
C         38.91394        39.65130        -0.16911
C         40.21876        41.80130         0.48875
C         38.93620        42.51940         0.08140
C         40.17594        44.70238         0.37329
C         39.00877        44.00109         0.46310
C         40.25789        46.20874         0.50370
C         38.89172        46.93861         0.24005
C         39.83420        48.90093        -1.14827
C         39.06597        48.17835        -0.47486
C         42.65303        24.50243        -0.66819
C         41.34479        25.26223        -0.74308
C         42.69414        26.64435         0.87541
C         41.46112        26.32104         0.44271
C         42.90340        28.76029         1.43219
C         41.56240        29.34160         1.09951
C         42.85510        31.53879         1.28200
C         41.53227        30.80866         1.42956
C         42.85749        33.04137         1.28783
C         41.55162        33.81354         1.47825
C         42.77822        35.97022         0.60906
C         41.56234        35.35107         1.28648
C         42.77807        37.45829         0.68632
C         41.45423        38.15543         0.87611
C         42.67872        40.44069         1.38358
C         41.39825        39.63450         1.00567
C         42.83050        41.76471         0.58370
C         41.50322        42.55886         0.57842
C         42.65531        44.83125         0.48657
C         41.46956        43.97425        -0.01783
C         42.66812        46.19325        -0.24120
C         41.54073        46.88845         0.11837
C         42.34495        48.83258        -1.89301
C         41.23826        48.88664        -1.00863
C         43.76358        24.89156        -0.28880
C         45.21963        27.09540         0.45300
C         43.98843        26.26626         0.21703
C         45.37758        28.51364         1.15026
C         44.07305        29.32727         1.03164
C         45.29630        31.51304         0.38089
C         44.02899        30.77856         0.67901
C         45.40600        33.00097         0.80970
C         44.05151        33.71597         0.65468
C         45.34732        35.98573         0.36037
C         44.05216        35.19755         0.45393
C         45.35785        37.36636         0.99706
C         44.05227        38.12590         1.09991
C         45.34123        40.36079         1.13975
C         44.03175        39.62752         1.30870
C         45.37724        41.86525         1.10332
C         44.02815        42.59613         1.06788
C         45.28339        44.24985        -0.10400
C         43.99240        44.06033         0.66028
C         45.11757        46.75424        -0.84736
C         43.72136        46.64339        -1.33881
C         43.22529        47.95647        -1.81923
C         47.66707        26.98832         0.79255
C         46.56132        26.54492         0.42523
C         47.97385        28.40210         0.28665
C         46.67968        29.28803         0.61847
C         47.66349        31.54871        -0.51901
C         46.61765        30.76017         0.24449
C         47.86791        32.94279         0.07131
C         46.48836        33.66987        -0.07772
C         47.95079        35.85895         0.49052
C         46.61497        35.20487         0.14665
C         47.93798        37.35686         0.60958
C         46.66760        38.13621         0.91838
C         47.77564        40.36333         0.07674
C         46.65921        39.64326         0.86099
C         47.88659        41.86257         0.38790
C         46.68912        42.58677         0.92330
C         47.76257        44.75840        -0.00833
C         46.57161        44.12694         0.70665
C         47.60228        45.94844        -0.62249
C         46.31979        46.46820        -0.82165
C         50.31824        29.28081         0.20152
C         49.25050        28.87182         0.97177
C         49.71801        31.85375        -1.82960
C         48.42299        31.21395        -1.61923
C         50.07585        33.09265        -1.27394
C         48.90291        33.87533        -0.70359
C         50.39011        35.93402        -0.41827
C         49.26588        35.07914         0.19837
C         50.23661        37.43648        -0.58541
C         49.06927        38.16317         0.00896
C         50.19029        40.36118        -0.59406
C         49.16760        39.67311         0.30729
C         50.05597        41.87127        -0.84726
C         49.00475        42.55117         0.03762
C         50.25963        44.56298        -0.38142
C         49.05982        44.09106         0.35904
C         51.09498        29.84296        -0.60194
C         52.61810        31.64288        -1.42620
C         51.61574        30.65490        -1.59344
C         52.36315        32.85264        -1.77075
C         51.33653        33.74463        -1.42822
C         52.20351        36.16063        -2.03291
C         51.46859        35.20053        -1.18277
C         52.18747        37.38897        -1.92971
C         51.53751        38.24781        -0.86079
C         52.15384        40.55948        -1.83522
C         51.22670        39.67868        -1.17658
C         52.26456        41.79491        -1.91048
C         51.50453        42.58641        -0.84464
C         51.18263        44.03849        -1.00322
O         41.14468        28.93899        -0.23377
O         44.35441        31.21445        -0.68343
O         44.83758        39.96639         2.45195
O         36.82247        35.61075         1.89385
O         39.63145        35.15976        -0.37380
O         44.49613        27.16541        -0.79428
O         44.06662        43.63227         2.06065
O         39.77545        37.56819        -1.02481
O         47.04101        38.95124         2.07076
O         37.95365        33.42166         2.47135
O         48.13901        36.49751         1.78648
O         35.69478        37.80093         1.94403
O         32.17002        40.13189        -1.36540
O         44.64570        37.41485         2.24856
O         33.77887        34.29555        -2.49797
O         33.54602        42.67917        -0.63521
O         45.96839        35.94414        -0.94812
O         41.04256        38.78643         2.13685
O         40.70614        42.29220         1.76530
O         35.98911        33.55139        -1.88461
O         40.96148        33.52237         2.77666
O         38.00219        26.32238         1.99529
O         39.48669        46.88281         1.54801
O         40.92004        31.01328         2.73309
O         46.22541        42.26495         2.25140
O         45.28905        43.99809        -1.30890
O         43.24227        32.28516         2.47948
O         49.12504        37.86120        -1.43103
O         41.57906        48.32911         0.22965
O         33.44396        38.92407         1.68775
O         38.42894        31.90166        -0.70316
O         47.06029        30.30392         1.58322
O         34.78084        44.17224         2.55363
O         51.67395        35.58301         0.21318
O         38.68025        39.87703        -1.56212
O         42.65561        36.77876        -0.60411
O         42.90718        27.48464         1.98449
O         50.59778        31.05132        -2.58512
O         33.61322        33.06639         0.89054
O         43.81452        34.25909        -0.66579
O         37.64001        45.85472        -1.38997
H         36.87107        45.26175        -1.58547
O         41.27100        25.94917        -1.95066
H         41.09071        25.32706        -2.68394
O         31.49019        35.41264         0.59711
H         31.85011        35.41887         1.51118
O         36.05167        29.05704        -1.99091
H         37.01229        28.85214        -1.96635
O         37.21235        28.68524         2.50922
H         36.74241        29.51946         2.71922
O         47.45780        40.25208        -1.33313
H         47.85427        39.42829        -1.69984
O         36.16089        43.78170        -0.77092
H         36.81037        43.15349        -1.17295
O         52.12121        42.38211         0.38701
H         52.93594        42.92049         0.44746
O         41.00675        40.29117        -1.16895
H         40.29290        39.99031        -1.81935
O         49.24083        44.21605         1.76806
H         48.51523        44.77067         2.13714
O         40.47126        26.83685         2.57246
H         39.59474        26.65081         2.98670
O         34.12486        31.85041        -3.17025
H         34.92306        32.43231        -3.13535
O         49.56586        39.79618         1.67146
H         49.61998        40.74540         1.91102
O         38.37101        30.77527         2.72538
H         39.12246        30.68459         3.35407
O         46.10484        33.40257        -1.43789
H         45.25456        33.88280        -1.61895
O         41.52097        43.84964        -1.44393
H         40.70561        43.37769        -1.74209
O         49.79036        34.64610         1.45964
H         49.76523        35.42031         2.06883
O         41.62061        35.92604         2.61399
H         41.21553        35.28223         3.24515
O         31.27643        31.38569        -0.96080
H         30.40918        30.94521        -1.07671
O         48.21105        32.70873         1.42222
H         48.51707        33.53156         1.86971
O         37.75146        45.01131         2.24009
H         38.56468        45.51626         2.46937
O         38.82214        42.51903        -1.36850
H         38.73511        41.53669        -1.64484
O         33.64371        29.44821         0.67713
H         32.80240        29.94715         0.73562
O         43.27369        41.47360        -0.75097
H         42.52100        41.06214        -1.25674
O         30.16084        37.62906        -0.14588
H         30.24275        36.65418        -0.00833
O         36.17184        39.48190        -1.17122
H         37.07114        39.55272        -1.62781
O         49.55884        42.04550        -2.18683
H         48.68216        41.59897        -2.24580
O         45.64720        28.25129         2.52661
H         45.89011        29.10276         2.95285
O         42.25183        45.21873         1.82128
H         42.60992        44.55906         2.46444
O         42.53533        40.83377         2.74305
H         42.25432        40.04774         3.26071
O         48.16515        28.31052        -1.09885
H         48.71054        27.52506        -1.30444
O         43.61316        45.72284        -2.39990
H         44.18349        44.92905        -2.22906
O         38.80386        29.41588        -0.69989
H         38.82998        30.37635        -1.01320
O         49.37724        28.66616         2.27647
H         48.54461        28.30954         2.65313
O         45.79421        33.11026         2.17717
H         45.07095        32.73754         2.73684
O         48.33371        34.52455        -1.85958
H         47.52096        34.04606        -2.16773
O         46.47652        44.76786         1.97857
H         46.12719        44.09726         2.62005
O         48.10291        30.23528        -2.48590
H         48.86256        30.09237        -3.09135
O         52.36174        38.22126         0.28205
H         52.55393        37.27731         0.49979
O         36.71875        42.50296         2.60229
H         36.84194        41.59513         2.94774
