         232
 CSIRO Nanostructure Databank - Neutral Graphene Oxide Data Set
C        -11.07948         0.71353        -0.41464
C         -9.83114         1.43256        -0.39031
C         -8.60205         0.68066        -0.43306
C         -7.35125         1.39627        -0.35128
C         -6.13910         0.69157        -0.24617
C         -4.79790         1.35519        -0.46769
C         -3.71899         0.76245         0.42076
C         -2.53140         1.41903         0.63828
C         -1.25375         0.74012         0.82389
C         -0.05361         1.45922         0.96210
C          1.19269         0.74937         0.65046
C          2.51268         1.50043         0.64159
C          3.75647         0.71898         0.86045
C          5.06655         1.53466         0.71036
C          6.30634         0.74995         0.42738
C          7.46873         1.42330        -0.22139
C          8.76201         0.70062        -0.18753
C          9.97004         1.47547        -0.41712
C         11.18106         0.69030        -0.59142
C         -9.81313         2.81649        -0.30548
C         -8.58909         3.54778        -0.24500
C         -7.34704         2.84457        -0.26272
C         -6.13098         3.57840        -0.13340
C         -4.85420         2.91174        -0.63935
C         -3.49413         3.61812        -0.28624
C         -2.55278         2.90655         0.68251
C         -1.32747         3.65213         1.11459
C         -0.02691         2.89538         1.28537
C          1.31046         3.64810         1.23899
C          2.56642         2.94618         0.90459
C          3.75112         3.62545         0.57058
C          4.95181         2.92865         0.30499
C          6.11319         3.61171        -0.30702
C          7.42647         2.88682        -0.43710
C          8.70063         3.67630        -0.21525
C          9.93023         2.85145        -0.55125
C         -8.60021         4.95966        -0.22923
C         -7.40498         5.68494        -0.13595
C         -6.17072         4.97489        -0.02365
C         -4.95219         5.77215         0.35696
C         -3.62807         5.08244         0.09271
C         -2.51406         5.78610         0.39426
C         -1.27665         5.18666         1.03719
C          0.01254         5.80136         0.54065
C          1.28458         5.09405         0.82765
C          2.55434         5.88543         0.92101
C          3.80299         5.11904         0.62448
C          4.82106         5.87108        -0.22546
C          6.11358         5.09755        -0.49881
C          7.42168         5.81928        -0.66947
C          8.60414         5.08861        -0.76214
C         -7.40230         7.12286        -0.27208
C         -6.22901         7.85597        -0.34711
C         -4.95863         7.20634        -0.11781
C         -3.79142         7.92925        -0.06901
C         -2.56979         7.29782         0.56651
C         -1.27435         7.90823         0.01513
C          0.02260         7.28359         0.35814
C          1.19126         7.98535         0.26803
C          2.48340         7.41454         0.80933
C          3.73474         8.05919         0.24808
C          4.98448         7.30916         0.22324
C          6.27732         8.02126        -0.26398
C          7.34537         7.22800        -0.85357
C         -6.21696         9.28882        -0.55094
C         -5.05860        10.00564        -0.51377
C         -3.77547         9.36621        -0.29727
C         -2.59312        10.08126        -0.29507
C         -1.28636         9.39382        -0.31705
C         -0.00882        10.09639        -0.22398
C          1.19532         9.42063        -0.01917
C          2.45019        10.10319        -0.10308
C          3.69656         9.43443        -0.03580
C          4.93241        10.10451        -0.42796
C          6.11470         9.45526        -0.57208
C        -11.10563        -0.64449        -0.47051
C         -9.90971        -1.45503        -0.57929
C         -8.62653        -0.73161        -0.59144
C         -7.36432        -1.39932        -0.50612
C         -6.15825        -0.73022        -0.14036
C         -5.02109        -1.49740         0.29534
C         -3.79098        -0.70707         0.61027
C         -2.45831        -1.40375         0.54526
C         -1.19377        -0.66109         0.58881
C          0.00854        -1.42208         0.63920
C          1.24572        -0.72046         0.71506
C          2.49251        -1.38472         0.61615
C          3.74134        -0.73228         0.62807
C          4.97055        -1.46907         0.38567
C          6.26721        -0.73676         0.34055
C          7.40735        -1.38340        -0.43227
C          8.73607        -0.67520        -0.24015
C          9.94626        -1.44220        -0.44062
C         11.16876        -0.67584        -0.58302
C        -10.13011        -2.83688        -0.50156
C         -9.14868        -3.85664        -0.75416
C         -7.22641        -2.79145        -0.73448
C         -6.27916        -3.55137        -0.08011
C         -5.14957        -2.89977         0.51790
C         -4.08505        -3.86418         0.94445
C         -2.31373        -2.71367        -0.19702
C         -1.20207        -3.58019         0.27766
C         -0.03432        -2.86599         0.59175
C          1.21407        -3.63138         0.69716
C          2.50162        -2.86444         0.63439
C          3.67769        -3.53038         0.00913
C          4.95662        -2.80604         0.04358
C          6.16141        -3.54301        -0.51050
C          7.44242        -2.86528        -0.01720
C          8.70139        -3.60488        -0.41344
C          9.90912        -2.83334        -0.55319
C         -8.97778        -5.13472        -0.28441
C         -7.66203        -5.80437        -0.37852
C         -6.40495        -5.05822         0.10453
C         -5.09862        -5.66746        -0.38191
C         -3.89938        -5.00754         0.17571
C         -2.56698        -5.67403        -0.16732
C         -1.27872        -4.99779         0.27963
C         -0.07294        -5.75684         0.33335
C          1.18889        -5.07017         0.34187
C          2.37709        -5.75309         0.10858
C          3.61620        -5.00348        -0.23431
C          4.89375        -5.79615        -0.48531
C          6.16596        -5.02515        -0.21982
C          7.39398        -5.72447        -0.24939
C          8.64210        -4.98161        -0.44500
C         -7.57501        -7.14933        -0.57110
C         -6.32093        -7.93944        -0.26357
C         -5.05485        -7.15983        -0.55620
C         -3.79871        -7.89398        -0.29572
C         -2.62322        -7.15447         0.16055
C         -1.31938        -7.93162         0.30700
C         -0.05897        -7.18275         0.21833
C          1.14625        -7.89481         0.10149
C          2.39204        -7.18788         0.05667
C          3.60942        -7.89742         0.10180
C          4.87062        -7.13700         0.21493
C          6.19625        -7.87501         0.25601
C          7.39397        -7.13607        -0.15788
C         -6.20089        -9.32593        -0.86261
C         -5.00697        -9.95764        -0.84242
C         -3.77530        -9.28774        -0.40168
C         -2.55283       -10.00789        -0.26880
C         -1.32395        -9.37319        -0.01449
C         -0.07557       -10.03799        -0.06364
C          1.15239        -9.34253         0.04276
C          2.40557       -10.01682         0.05929
C          3.62128        -9.31923         0.12941
C          4.91099        -9.99918         0.16329
C          6.10196        -9.34791         0.19809
O         -2.41378         3.33188         2.06896
O          3.37024        -4.05912        -1.35932
O          4.14693         6.03908        -1.50538
H          4.36879         5.24870        -2.05610
O          7.08501        -1.21521        -1.82702
H          7.72737        -1.72451        -2.36323
O         -3.25743        -3.67812         1.99670
H         -3.39512        -2.79075         2.41042
O          0.71417         3.25936         2.50765
O         -2.75318         7.54645         1.94291
O          6.71532        -0.08351         1.56200
O         -8.11468        -3.41180        -1.60313
O         -5.03976         3.15779        -2.07148
H         -5.23639         2.28833        -2.49611
O          2.04547        -3.40695         1.91239
O          5.84284         4.21522        -1.64207
O         -2.13819        -7.55141         1.47106
O          3.49861         5.54803         1.98960
O          5.56008        -7.25323         1.47168
O          0.72125         5.13917        -0.55010
O          6.07571        -3.47148        -1.96473
H          5.11837        -3.50725        -2.19845
O          2.49712         7.90353         2.19145
H          3.17155         7.37230         2.67578
O         -2.69376         3.57024        -1.49916
H         -3.30521         3.79119        -2.24354
O         -6.39339        -5.25076         1.54918
H         -7.26927        -4.98759         1.89994
O         -2.47567        -5.62496        -1.62359
H         -2.69252        -4.70055        -1.89995
O          7.31163         1.98410        -1.57758
O         -1.31619         5.64488         2.40591
H         -2.12704         5.27706         2.82372
O         -3.15492        -1.19148         1.84217
O          6.01587         7.65321         1.16419
O          1.82848         1.23047        -0.62990
O         -2.82151        -2.83913        -1.30924
O         -4.37361         0.81831        -1.77548
H         -3.47507         1.17148        -1.96202
O         -1.31244         8.31633        -1.37146
O          4.48935         1.20515         2.01153
O         -5.09150        -6.25373        -1.70944
O         -5.00507         5.86224         1.82369
H         -4.27640         6.49590         2.09057
O          4.88759        -6.16211        -1.90060
H          4.56244        -5.38206        -2.40337
O          7.36896        -2.91818         1.42658
H          8.03133        -2.29978         1.80034
O         -6.32187        -8.13526         1.18755
H         -7.09441        -8.69223         1.41644
O          8.73330         3.84222         1.25307
H          9.49630         4.41630         1.47659
H         12.11075        -1.22738        -0.72354
H         12.13183         1.22405        -0.74017
H         10.86542         3.38996        -0.77609
H          9.54511         5.64084        -0.91967
H          8.17704         7.75544        -1.34516
H          6.98481         9.99198        -0.98040
H          4.86945        11.17222        -0.68706
H          2.44177        11.17728        -0.34582
H         -0.00407        11.19589        -0.28891
H         -2.61318        11.17686        -0.40218
H         -5.07916        11.09582        -0.66221
H         -7.17704         9.79964        -0.71862
H         -8.37075         7.63378        -0.38406
H         -9.55992         5.49142        -0.30874
H        -10.76375         3.37015        -0.27933
H        -12.01671         1.28656        -0.36442
H        -12.07327        -1.16809        -0.45851
H        -11.14938        -3.16097        -0.23543
H         -9.78547        -5.64693         0.26151
H         -8.49117        -7.71777        -0.80218
H         -7.10548        -9.85138        -1.20669
H         -4.92548       -11.00027        -1.18679
H         -2.55777       -11.09087        -0.46675
H         -0.05796       -11.12983        -0.20444
H          2.41598       -11.11727         0.04277
H          4.90216       -11.09893         0.12047
H          7.03861        -9.92392         0.14525
H          8.32431        -7.69433        -0.34340
H          9.55984        -5.56546        -0.61987
H         10.84921        -3.37212        -0.75244
