         404
 CSIRO Nanostructure Databank - Neutral Graphene Oxide Data Set
C          1.37752         1.90870         1.35886
C          1.28923         3.28953         1.31915
C          2.58561         1.21575         1.16885
C          2.49582         4.11628         1.28486
C          1.28602         6.33107         1.44445
C          1.28334         7.72295         1.43960
C          2.42900         5.59688         1.07804
C          2.43933         8.46095         1.10453
C          1.33362        10.67461         1.57882
C          1.36856        12.05485         1.71737
C          2.47442         9.93498         1.19142
C          2.53067        12.80241         1.41389
C          1.49656        14.96536         2.10601
C          1.59349        16.30773         2.43880
C          2.60826        14.25283         1.60845
C          2.80473        17.01140         2.27225
C          2.93001        18.35612         2.73542
C          3.78212         1.90545         0.81848
C          3.80258         3.37625         0.99733
C          4.88580         1.25937         0.29917
C          4.92026         4.11982         0.38702
C          3.57378         6.30872         0.66126
C          3.57462         7.72387         0.68324
C          4.76066         5.55912         0.15442
C          4.85455         8.45032         0.49977
C          3.64744        10.67406         0.89050
C          3.65998        12.08663         0.95467
C          4.91004         9.94077         0.64406
C          4.83779        12.85580         0.48623
C          3.82692        14.96344         1.36770
C          3.93231        16.36377         1.67766
C          4.96592        14.27891         0.84208
C          5.13643        17.09867         1.42053
C          4.13447        18.99749         2.65433
C          5.26793        18.42619         1.98279
C          6.06954         1.97500        -0.28605
C          6.05938         3.47312        -0.05568
C          7.38372         1.34882         0.10015
C          7.27347         4.20149        -0.32306
C          6.01221         6.30239        -0.26783
C          6.00673         7.79270        -0.18972
C          7.29780         5.58780        -0.28734
C          7.30696         8.51944        -0.21906
C          6.14052        10.65070         0.22098
C          6.10668        12.11278         0.10004
C          7.32842         9.97909         0.06254
C          7.37939        12.84050         0.08719
C          6.17073        14.96265         0.59533
C          6.22653        16.39767         0.77580
C          7.37037        14.24713         0.20460
C          7.36610        17.05133         0.27038
C          6.46716        19.18660         2.09410
C          7.58786        19.07757         1.25499
C          8.56873         2.01282        -0.13434
C          8.53287         3.43653        -0.66419
C          9.82203         1.34404        -0.11714
C          9.79946         4.19862        -0.32195
C          8.54591         6.34076        -0.19974
C          8.54700         7.72908        -0.12351
C          9.78125         5.57605        -0.12529
C          9.76899         8.51290         0.15496
C          8.58106        10.69107        -0.08695
C          8.59471        12.12266        -0.07774
C          9.78830         9.97141        -0.10536
C          9.83841        12.81314        -0.23578
C          8.60625        14.94135         0.04969
C          8.59015        16.36775         0.00671
C          9.84093        14.26285        -0.17665
C          9.80178        17.07598        -0.16813
C          8.88496        19.55141         1.50528
C         10.00232        19.16065         0.71211
C         11.03422         2.01972        -0.41728
C         11.03202         3.46215        -0.38997
C         12.25318         1.33027        -0.62321
C         12.27497         4.13524        -0.48187
C         11.04959         6.27918         0.17565
C         11.07301         7.78057         0.24696
C         12.34073         5.55925        -0.11028
C         12.31335         8.51099        -0.10195
C         11.03450        10.64575        -0.23389
C         11.02764        12.06439        -0.39551
C         12.27276         9.89708        -0.27153
C         12.27858        12.77972        -0.69743
C         11.04592        15.00819        -0.21744
C         11.07521        16.44445        -0.09306
C         12.27868        14.30268        -0.58215
C         12.30043        17.19844        -0.02104
C         11.34310        19.35598         0.97517
C         12.41640        18.58512         0.36424
C         13.46805         2.01552        -0.87388
C         13.44992         3.44682        -0.80362
C         14.70974         1.32465        -1.05005
C         14.66105         4.22043        -1.12621
C         13.56791         6.34888        -0.36068
C         13.53155         7.74412        -0.25118
C         14.75895         5.64609        -0.74406
C         14.81374         8.45604        -0.17535
C         13.52629        10.59508        -0.75745
C         13.56142        12.09212        -0.61508
C         14.79501         9.95119        -0.24719
C         14.77362        12.81110        -0.76670
C         13.57882        14.94069        -0.26642
C         13.58266        16.45087        -0.03924
C         14.81274        14.25077        -0.66350
C         14.84983        17.13345        -0.30150
C         13.68207        19.20073         0.34954
C         14.87988        18.56913        -0.11832
C         15.94297         1.98502        -1.20899
C         15.94919         3.45519        -1.38482
C         17.18697         1.32254        -1.21022
C         17.22362         4.18432        -1.28350
C         15.99635         6.28826        -0.86682
C         16.09529         7.69975        -0.47216
C         17.21667         5.59825        -1.18302
C         17.29440         8.44697        -0.88514
C         16.05397        10.68378        -0.57242
C         16.01495        12.12327        -0.89581
C         17.21760         9.89876        -1.05585
C         17.25399        12.82431        -0.99961
C         16.02902        14.96120        -0.68973
C         16.03491        16.41056        -0.55766
C         17.26623        14.27071        -0.88614
C         17.27486        17.10837        -0.67979
C         16.06582        19.27083        -0.28857
C         17.26702        18.60286        -0.89086
C         18.42836         2.01973        -1.30855
C         18.43547         3.46748        -1.31875
C         19.66198         1.33963        -1.33886
C         19.67449         4.17916        -1.38132
C         18.45849         6.31668        -1.24839
C         18.45566         7.76882        -1.21666
C         19.67172         5.61865        -1.38674
C         19.69884         8.50140        -1.37038
C         18.48356        10.67586        -1.37223
C         18.46336        12.12698        -1.13136
C         19.73751         9.91025        -1.33356
C         19.76372        12.84729        -1.31129
C         18.50191        14.96899        -0.81369
C         18.49076        16.40462        -0.70501
C         19.75075        14.27402        -0.83323
C         19.74412        17.09500        -0.56302
C         18.56886        19.26005        -0.54029
C         19.75000        18.55690        -0.45026
C         20.89988         2.03071        -1.42588
C         20.88504         3.45770        -1.48549
C         22.14795         1.33045        -1.36172
C         22.13742         4.19679        -1.68005
C         20.92180         6.35107        -1.43692
C         20.92723         7.77840        -1.39210
C         22.14716         5.65970        -1.48307
C         22.16336         8.48723        -1.37652
C         20.96532        10.59518        -1.14190
C         20.92520        12.03190        -0.78262
C         22.18308         9.90725        -1.16344
C         22.21273        12.74453        -0.50710
C         20.95938        14.94026        -0.56550
C         20.92441        16.36894        -0.42576
C         22.23302        14.22507        -0.49229
C         22.15801        17.06926        -0.01592
C         21.01014        19.23565        -0.32198
C         22.21637        18.54348        -0.19192
C         23.38654         1.98460        -1.33014
C         23.44692         3.43683        -1.58287
C         24.61717         1.32982        -1.10797
C         24.67908         4.15906        -1.22945
C         23.37669         6.35965        -1.47081
C         23.37696         7.75894        -1.46065
C         24.69291         5.67212        -1.16797
C         24.63985         8.51653        -1.61911
C         23.44426        10.61887        -0.98254
C         23.47291        12.00372        -0.69537
C         24.66693         9.92729        -1.18716
C         24.70175        12.71480        -0.64943
C         23.44906        14.85661        -0.28261
C         23.43595        16.29264         0.08890
C         24.71723        14.13774        -0.38489
C         24.73263        17.04454         0.17147
C         23.46962        19.17852        -0.27502
C         24.71853        18.49439        -0.18594
C         25.84922         2.00842        -0.92603
C         25.84296         3.48931        -0.93380
C         27.00800         1.19234        -0.82330
C         27.06676         4.31811        -0.85631
C         25.89503         6.24508        -1.95826
C         25.92584         7.77453        -1.86050
C         27.14750         5.62050        -1.39073
C         27.19735         8.47955        -1.57546
C         25.90075        10.59900        -1.11724
C         25.92470        12.00674        -0.84336
C         27.13770         9.86987        -1.32339
C         27.16649        12.71699        -0.80580
C         25.95406        14.80839        -0.30074
C         26.00856        16.25322         0.06396
C         27.18839        14.12152        -0.54957
C         27.28651        17.00719        -0.15641
C         25.88726        19.14916        -0.53940
C         27.21281        18.53395        -0.46799
C         28.23991         1.63343        -0.27111
C         28.23963         3.80771        -0.28699
C         29.54781         1.22751        -0.43488
C         29.52700         4.29946        -0.58833
C         28.38272         6.31637        -1.39456
C         28.43512         7.76416        -1.58621
C         29.58262         5.61616        -1.11121
C         29.67913         8.46376        -1.65006
C         28.36085        10.59057        -1.29551
C         28.38056        12.00714        -1.06496
C         29.55802         9.90263        -1.64172
C         29.61653        12.71232        -1.04915
C         28.45030        14.82704        -0.60311
C         28.48805        16.27998        -0.58250
C         29.64442        14.11532        -0.80892
C         29.62272        17.00161        -0.92794
C         28.36972        19.12117        -1.12712
C         29.57884        18.43069        -1.19512
C         30.66004         2.07750        -0.00576
C         30.70225         3.51126        -0.23950
C         31.80028         1.45369         0.49741
C         31.94653         4.17370        -0.18821
C         30.88345         6.26972        -1.34222
C         30.96003         7.73802        -1.56121
C         32.11587         5.50551        -0.81731
C         32.27028         8.27758        -1.56347
C         30.64829        10.74947        -1.95138
C         30.80353        12.03712        -1.46724
C         32.52386         9.63921        -1.97005
C         32.14956        12.63708        -1.23126
C         30.93783        14.82091        -0.89976
C         30.92980        16.31608        -1.00170
C         32.18589        14.11351        -1.28745
C         32.01486        16.96296        -1.85058
C         30.80764        19.11624        -1.46244
C         32.04037        18.45021        -1.54069
C         32.97187         2.18430         0.83041
C         33.07550         3.54964         0.40129
C         34.02981         1.58941         1.54771
C         34.31297         4.25416         0.57767
C         33.34158         6.26831        -0.52652
C         33.43136         7.60676        -0.97093
C         34.43609         5.63458         0.11780
C         34.66257         8.31481        -0.77156
C         33.54894        10.43029        -1.52695
C         33.46077        11.89385        -1.30052
C         34.79418         9.72643        -1.20219
C         34.72066        12.69074        -1.22507
C         33.37099        14.79065        -1.40831
C         33.41128        16.25541        -1.81116
C         34.65112        14.10450        -1.23582
C         34.51614        17.00466        -1.10703
C         33.24071        19.12056        -1.30323
C         34.44737        18.41810        -1.01502
C         35.20655         2.31300         1.82566
C         35.35936         3.62761         1.26450
C         36.23699         1.76857         2.63905
C         36.66787         4.28488         1.40385
C         35.63734         6.35728         0.30816
C         35.75050         7.69507        -0.12993
C         36.82627         5.70223         0.89278
C         37.04995         8.40400         0.06792
C         36.02448        10.54705        -0.97271
C         35.93537        12.03575        -0.90711
C         37.18337         9.85709        -0.32214
C         37.08379        12.77175        -0.53016
C         35.81010        14.87125        -0.89488
C         35.71214        16.31492        -0.78137
C         37.02580        14.21255        -0.53372
C         36.84413        17.05944        -0.33068
C         35.57176        19.14099        -0.53552
C         36.74639        18.48726        -0.19356
C         37.38312         2.51417         2.99730
C         37.59954         3.80272         2.43264
C         38.35256         1.99552         3.91622
C         38.70604         4.59446         2.81659
C         37.90742         6.53909         1.46322
C         38.01555         7.87345         1.06318
C         38.86763         5.94884         2.34070
C         39.12799         8.67698         1.47466
C         38.22429        10.70106         0.29698
C         38.23335        12.06787         0.02192
C         39.26332        10.05266         1.06325
C         39.47392        12.81420         0.28607
C         38.15821        15.00724        -0.13283
C         38.06900        16.39498        -0.03367
C         39.45874        14.35266         0.15724
C         39.31792        17.22227         0.21392
C         37.84338        19.22914         0.38224
C         39.02788        18.62701         0.69973
C         39.45178         2.73964         4.26590
C         39.64631         4.05548         3.74685
C         40.75340         4.84763         4.14670
C         39.97241         6.72557         2.78162
C         40.11448         8.08892         2.32537
C         40.91259         6.13360         3.67672
C         41.23055         8.87402         2.71557
C         40.38779        10.80703         1.49187
C         40.52842        12.19408         1.09976
C         41.36417        10.18359         2.31048
C         41.61122        12.97669         1.48390
C         40.50270        15.08830         0.88661
C         40.36854        16.51962         1.05074
C         41.59363        14.38396         1.38378
C         41.25452        17.26408         1.79644
C         40.05880        19.34711         1.40363
C         41.13574        18.68613         1.92394
O         22.62541        16.57625         1.29013
O          5.25820         9.04436         1.78878
O         15.56381        10.53602         0.82637
O          3.47156         3.79811         2.35928
O          9.72230        18.42648        -0.47072
O         10.40064         8.23339         1.46959
O         13.64600        15.47621         1.09063
O         31.28044        15.70166         0.26074
O          5.04327         5.85636        -1.27113
O         31.75518         5.50612        -2.24070
O         32.73930        12.09757         0.02098
O          5.15096        12.58247        -0.92997
O          6.47748         8.33914        -1.45837
O         25.20735         8.36954        -2.99793
O         37.32231         4.57089         0.10466
O         21.32545        12.25042         0.59442
O          7.33546        18.42331         0.02607
O         39.96378        13.50797        -0.91399
O         11.83006         5.70976         1.27565
O         25.44867        16.61727         1.37083
O         15.12212         3.94204        -2.49923
O         22.88982         3.81144        -2.89344
O         17.55105        10.27395        -2.44217
O         35.76946         9.99396        -2.30664
O         15.65949         7.95843         0.91072
O         37.74000         8.80045        -1.16912
O         12.20637        13.67551        -1.89772
O         31.59846        10.23942        -2.82232
O         28.10601         2.74670         0.59786
O         27.54728        17.98221         0.86428
O         24.98204         6.03991         0.21982
H         24.29499         5.64431         0.79605
O         31.47554        16.83316        -3.18900
H         32.23221        16.89276        -3.81578
O          5.97544         1.80739        -1.74714
H          6.77859         2.23493        -2.13525
O         33.86937        16.22157        -3.21096
H         34.77047        15.83275        -3.21904
O         25.80643         5.87315        -3.33778
H         25.36864         6.61874        -3.81135
O          8.49687         3.28051        -2.13009
H          8.39777         4.17429        -2.52325
O         13.58057        10.32735        -2.21033
H         12.92041        10.90797        -2.64719
O         20.00751        12.90160        -2.76507
H         19.19084        13.23231        -3.19625
O         17.11715        18.78326        -2.36868
H         16.25492        18.38639        -2.61845
O         39.92745        17.38261        -1.11468
H         40.76296        17.88145        -0.99354
H          0.45287         1.32368         1.47006
H          0.30153         3.77118         1.30178
H          2.57821         0.11676         1.14066
H          0.38100         5.80109         1.77251
H          0.36698         8.23906         1.75505
H          0.39383        10.15658         1.81175
H          0.45896        12.56174         2.06528
H          0.53998        14.45253         2.26998
H          0.72594        16.83065         2.86596
H          2.06407        18.84353         3.20541
H          4.85282         0.16596         0.17155
H          4.24265        20.00887         3.07255
H          7.40244         0.28995         0.40217
H          6.49674        19.94713         2.89019
H          9.84330         0.26154         0.08118
H          9.07529        20.08875         2.44489
H         12.25113         0.23007        -0.61097
H         11.63814        20.09827         1.73186
H         14.70479         0.22584        -0.98552
H         13.75064        20.25203         0.66785
H         17.20652         0.22532        -1.12533
H         16.08816        20.35791        -0.11929
H         19.66899         0.24021        -1.29632
H         18.58507        20.35830        -0.46596
H         22.12369         0.23680        -1.24104
H         21.02337        20.33418        -0.38930
H         24.61646         0.23171        -1.02928
H         23.49386        20.26199        -0.46891
H         26.92505         0.14872        -1.16468
H         25.82279        20.18200        -0.91521
H         29.78785         0.26858        -0.91705
H         28.30032        20.14898        -1.51319
H         31.78093         0.37141         0.69064
H         30.80469        20.21627        -1.40762
H         33.92349         0.55949         1.91801
H         33.22504        20.21162        -1.15596
H         36.10730         0.75714         3.05158
H         35.50020        20.23286        -0.42551
H         38.20183         0.99105         4.33694
H         37.67985        20.28919         0.63080
H         40.19366         2.33525         4.96976
H         41.48522         4.42630         4.85093
H         41.78038         6.71008         4.02221
H         42.01334         8.44418         3.35310
H         42.24537        10.74781         2.64152
H         42.47115        12.52083         1.99205
H         42.43927        14.93009         1.82384
H         42.07548        16.77254         2.33701
H         39.92157        20.42399         1.58078
H         41.89774        19.22994         2.49893
