         429
 CSIRO Nanostructure Databank - Neutral Graphene Oxide Data Set
C          1.86184         2.16282         3.39065
C          1.80146         3.56117         3.26068
C          3.03203         1.48473         3.10080
C          2.92600         4.32530         2.92518
C          1.52649         6.29723         2.07188
C          1.44067         7.64909         1.70937
C          2.70846         5.76909         2.63534
C          2.56878         8.49459         1.71259
C          1.41364        10.52534         0.57038
C          1.47678        11.73300        -0.00987
C          2.53587         9.94924         1.35548
C          2.74759        12.53078        -0.14951
C          1.43043        14.72626        -0.37528
C          1.41571        16.11684        -0.51580
C          2.62018        14.04545        -0.09673
C          2.59615        16.87389        -0.35498
C          2.59627        18.31632        -0.53791
C          4.20052         2.20070         2.72665
C          4.18051         3.63602         2.72782
C          5.36888         1.48319         2.32963
C          5.42906         4.27476         2.38287
C          3.74571         6.70271         2.79022
C          3.78531         7.96777         2.19498
C          5.63685         5.66132         2.56829
C          5.08558         8.60225         1.76631
C          3.81000        10.75449         1.43711
C          3.87773        12.04336         0.72603
C          5.13509        10.11866         1.91781
C          5.07895        12.77125         0.70192
C          3.82544        14.79724         0.04566
C          3.80056        16.21125        -0.05219
C          5.07344        14.12353         0.27494
C          5.01125        17.01336         0.36116
C          3.74466        19.04389        -0.48371
C          5.01625        18.43378        -0.16103
C          6.50753         2.12201         1.82338
C          6.51746         3.56237         1.80797
C          7.67121         1.41857         1.37523
C          7.64026         4.27106         1.30032
C          6.55458         6.40309         1.83385
C          6.37485         7.85015         1.55236
C          7.63152         5.69552         1.24276
C          7.61462         8.58641         1.19569
C          6.37154        10.74424         1.30223
C          6.34081        12.09971         0.98603
C          7.58260         9.99531         1.12087
C          7.57558        12.83495         0.79731
C          6.34649        14.82784        -0.09444
C          6.33291        16.31911         0.12777
C          7.58474        14.17167         0.44052
C          7.49770        17.03583         0.18789
C          6.18952        19.13466        -0.17805
C          7.46317        18.50564         0.14026
C          8.81064         2.08643         0.91949
C          8.79898         3.54274         0.84409
C          9.97554         1.37751         0.47784
C          9.87684         4.22916         0.30621
C          8.70341         6.44081         0.64704
C          8.72101         7.84432         0.68137
C          9.77730         5.66638         0.00507
C          9.78783         8.60284        -0.09640
C          8.80759        10.71142         0.84152
C          8.81432        12.10413         0.93207
C          9.98844        10.00668         0.41036
C         10.08119        12.82424         0.97923
C          8.88603        14.87498         0.13287
C          8.80993        16.38822         0.26979
C         10.03287        14.33176         1.00542
C          9.93689        17.11591         0.49771
C          8.60595        19.23589         0.28028
C          9.90515        18.61516         0.71489
C         11.13061         2.03195         0.04819
C         11.14185         3.51600         0.06823
C         12.35098         1.36248        -0.23672
C         12.33834         4.24844        -0.44810
C         11.03009         6.42870        -0.48029
C         11.09023         7.86762        -0.28511
C         12.28048         5.70675        -0.69832
C         12.29121         8.54798        -0.52525
C         11.18310        10.66521         0.16872
C         11.33260        12.08255         0.53458
C         12.33943         9.98884        -0.37882
C         12.43499        12.85798        -0.04190
C         11.30311        14.99028         0.55842
C         11.29769        16.47774         0.74127
C         12.39402        14.30351         0.01132
C         12.39324        17.19076         0.00282
C         11.12723        19.29782         0.15098
C         12.33308        18.62637        -0.09863
C         13.51769         2.03564        -0.65094
C         13.40675         3.45328        -1.16866
C         14.77032         1.41025        -0.70450
C         14.71282         4.20853        -1.21474
C         13.42972         6.40928        -1.02134
C         13.46828         7.83896        -0.94685
C         14.62714         5.65882        -1.47129
C         14.68712         8.56100        -1.19198
C         13.50014        10.69739        -0.69777
C         13.53056        12.15974        -0.61813
C         14.68288         9.98889        -1.11743
C         14.61899        12.86586        -1.13741
C         13.48479        15.04922        -0.52948
C         13.50232        16.47547        -0.49142
C         14.56954        14.35714        -1.30307
C         14.69254        17.19048        -0.88219
C         13.51993        19.32539        -0.46742
C         14.72795        18.63827        -0.77028
C         15.96918         2.11458        -1.00549
C         15.92623         3.55864        -1.24167
C         17.20355         1.45840        -1.00356
C         17.17156         4.29049        -1.43519
C         15.90812         6.42491        -1.68073
C         15.90820         7.88580        -1.47791
C         17.18256         5.69087        -1.58923
C         17.12399         8.58587        -1.61747
C         15.87129        10.69307        -1.42071
C         15.85608        12.19176        -1.62107
C         17.08214        10.00855        -1.59639
C         17.08694        12.80631        -0.86892
C         15.90042        15.03118        -1.05227
C         15.90386        16.46073        -1.06176
C         17.09144        14.31852        -0.96732
C         17.15004        17.15467        -1.03906
C         15.93628        19.32937        -0.93832
C         17.15962        18.60993        -1.43243
C         18.42820         2.13610        -1.24386
C         18.41188         3.57712        -1.47681
C         19.64317         1.44165        -1.19280
C         19.59918         4.26574        -1.75066
C         18.39769         6.42361        -1.69145
C         18.38926         7.86096        -1.76705
C         19.63299         5.70133        -1.81437
C         19.60855         8.55314        -1.88356
C         18.31266        10.79339        -1.85312
C         18.34051        12.19265        -1.41386
C         19.60942        10.02300        -2.08102
C         19.57644        12.96252        -1.39792
C         18.31729        15.02938        -0.81511
C         18.32146        16.45175        -0.79268
C         19.56502        14.33023        -0.81252
C         19.53991        17.19749        -0.31979
C         18.48828        19.28354        -1.21109
C         19.62247        18.60050        -0.86769
C         20.88094         2.07602        -1.47903
C         20.83558         3.48084        -1.94614
C         22.09790         1.40625        -1.45218
C         22.13873         4.20849        -2.17047
C         20.85354         6.41355        -1.92230
C         20.86164         7.83705        -1.86624
C         22.14271         5.72588        -2.34899
C         22.11426         8.52125        -1.75578
C         20.91522        10.76923        -1.96349
C         20.88369        12.23479        -1.59645
C         22.18309         9.99891        -1.75656
C         22.05380        12.76709        -0.82015
C         20.76559        15.00864        -0.56719
C         20.83514        16.42384        -0.40227
C         21.98817        14.20273        -0.38561
C         22.05416        17.09738        -0.20839
C         20.92700        19.19440        -0.90939
C         22.10187        18.53069        -0.55279
C         23.35573         2.08383        -1.61336
C         23.37659         3.50088        -1.79924
C         24.57614         1.38724        -1.48474
C         24.58877         4.20949        -1.67263
C         23.37975         6.39103        -1.79953
C         23.34382         7.80485        -1.64596
C         24.58182         5.67780        -1.65201
C         24.56526         8.50865        -1.40493
C         23.38947        10.66645        -1.20382
C         23.36801        12.06296        -0.83645
C         24.57268         9.92499        -1.10422
C         24.46637        12.67926        -0.26416
C         23.23275        14.90319        -0.06946
C         23.24266        16.28273         0.09684
C         24.41482        14.07895         0.23101
C         24.47733        16.89408         0.51625
C         23.33939        19.24549        -0.82904
C         24.52787        18.97169        -0.18072
C         25.81595         2.06655        -1.51868
C         25.79662         3.49193        -1.57400
C         27.06353         1.36830        -1.38803
C         27.06827         4.23311        -1.62167
C         25.79330         6.38896        -1.44405
C         25.77667         7.78751        -1.37244
C         27.04992         5.63840        -1.07583
C         27.04336         8.55060        -1.38604
C         25.79113        10.55968        -0.67503
C         25.68171        11.84682         0.10978
C         27.02100         9.92508        -0.85985
C         27.00207        12.64570         0.11447
C         25.73467        14.83740         0.50667
C         25.73166        16.30654         0.39489
C         27.03912        14.11929         0.38491
C         26.97238        17.07149         0.27108
C         25.87511        19.27944        -0.49755
C         26.99275        18.51391        -0.08004
C         28.30378         2.02001        -1.32023
C         28.36149         3.48552        -1.50737
C         29.51648         1.35746        -1.04441
C         29.58480         4.22073        -1.11696
C         28.36257         6.35393        -1.28359
C         28.36975         7.81466        -1.40070
C         29.56288         5.66841        -1.11187
C         29.59348         8.53832        -1.02189
C         28.27329        10.59227        -0.69188
C         28.20648        12.05494        -0.54273
C         29.52415         9.96528        -0.84292
C         29.47180        12.84300        -0.47922
C         28.26470        14.93490         0.14088
C         28.19046        16.37919         0.23845
C         29.44919        14.27494        -0.09283
C         29.49017        17.11661         0.48041
C         28.25190        19.15614        -0.24826
C         29.48679        18.54520        -0.00134
C         30.74763         2.05998        -0.91812
C         30.76569         3.51980        -0.94171
C         31.95097         1.37510        -0.73615
C         32.02277         4.22678        -0.81591
C         30.80481         6.39018        -0.91808
C         30.77414         7.81418        -0.83165
C         32.03085         5.66800        -0.78373
C         32.01084         8.56111        -0.51796
C         30.74659        10.72977        -0.67570
C         30.73772        12.08884        -0.44231
C         32.06426        10.02580        -0.91767
C         31.95298        12.82132        -0.12042
C         30.72320        14.99210        -0.42973
C         30.75060        16.40378         0.06778
C         31.94938        14.18927        -0.05446
C         31.94616        17.08692         0.13019
C         30.70857        19.22756        -0.06160
C         31.94989        18.55176         0.13119
C         33.21300         2.05245        -0.70981
C         33.22848         3.51396        -0.76530
C         34.38868         1.32991        -0.65329
C         34.48451         4.21071        -0.71194
C         33.27494         6.34750        -0.64584
C         33.30285         7.81016        -0.46195
C         34.49861         5.65556        -0.63567
C         34.57388         8.58453        -0.68842
C         33.26287        10.70489        -0.28605
C         33.19688        12.07425         0.11529
C         34.46983        10.00364        -0.24639
C         34.29160        12.69516         0.74070
C         33.28538        14.88017         0.06515
C         33.20301        16.38268         0.20948
C         34.15408        14.19884         1.14433
C         34.37772        17.08474         0.41497
C         33.16947        19.22818         0.12498
C         34.40612        18.53263         0.28820
C         35.71443         1.98838        -0.86527
C         35.67805         3.46786        -0.61701
C         36.86810         1.34742        -0.15585
C         36.90449         4.14699        -0.41349
C         35.76646         6.35272        -0.66606
C         35.89584         7.85975        -0.74882
C         36.88031         5.54043        -0.72314
C         37.26886         8.68437        -0.51107
C         35.62985        10.63278         0.26828
C         35.47148        11.90725         0.90451
C         36.93843        10.06828         0.13178
C         36.57692        12.36409         1.67431
C         35.45920        15.00071         1.28223
C         35.57523        16.39461         0.85611
C         36.50497        14.47500         1.97364
C         36.74661        17.11312         1.07246
C         35.63755        19.18152         0.27573
C         36.85597        18.48436         0.58192
C         37.96230         2.06218         0.29318
C         38.05403         3.51262         0.16548
C         39.02984         1.33728         0.94362
C         39.09891         4.22227         0.88112
C         38.58053         6.58335         0.11017
C         38.35911         7.93251         0.32939
C         39.22498         5.66773         1.00525
C         39.27651         8.50165         1.28994
C         37.99218        10.92231         0.46939
C         37.88793        12.01884         1.38659
C         39.64768         9.86189         1.23056
C         39.08075        12.74672         1.90572
C         37.86591        15.03266         2.06076
C         37.92700        16.49580         1.73078
C         39.09364        14.17342         2.01693
C         39.27331        17.12938         1.57274
C         38.08843        19.09414         0.41396
C         39.35020        18.47696         0.86893
C         39.99805         2.00830         1.61886
C         39.98273         3.44505         1.69344
C         40.81874         4.05681         2.65905
C         39.97175         6.24959         2.07379
C         40.01385         7.69349         2.20592
C         40.75973         5.41224         2.90440
C         40.80612         8.36383         3.18198
C         40.29548        10.55133         2.25069
C         40.27882        12.02962         2.20963
C         40.88545         9.74973         3.25986
C         41.44925        12.73706         2.53049
C         40.34761        14.85249         2.04546
C         40.46764        16.26652         1.64571
C         41.50877        14.11266         2.34896
C         41.66432        16.80426         1.22350
C         40.63986        18.82053         0.26509
C         41.73908        18.05835         0.52835
O         11.03934        12.33578         1.97431
O         36.29920        13.28256         2.68755
O          2.82181        10.78835         2.55203
O          9.94506         5.98868        -1.43137
O         27.76631         8.36414        -2.64903
O         35.23595         8.36373        -1.97394
O         39.28323        10.57299         0.07463
O         21.42726         3.58674        -3.30085
O         24.39535        18.19458         0.98984
O         28.69462        12.72257        -1.76637
O         39.40182        18.36332         2.34695
O         37.80279        16.05959         3.13516
O         15.06764         6.02242        -2.83087
O         38.10528         6.07743        -1.10067
O          4.86987         6.32184         3.52763
O         27.29356        13.14499         1.45855
O         12.24069         3.99721         0.99255
O         27.85202         3.98230        -2.81619
O         18.83240        10.50983        -3.22295
O         21.79923        10.54813        -3.10696
O         21.69632        13.07694         0.57253
O         24.92782        14.30004         1.59756
O          5.38255         8.10240         0.42454
O         32.61359         8.24792         0.77434
O         20.39782        13.04654        -2.69391
O         36.01340         1.83233        -2.31813
H         36.85333         2.30990        -2.49128
O         14.26914        14.59768        -2.72986
H         14.85072        13.98157        -3.23976
O          9.22555         8.73474        -1.45329
H          9.21427         7.82172        -1.83211
O         16.02583        12.49145        -3.03093
H         16.90048        12.14648        -3.32146
O          9.22357        14.55428        -1.24223
H          8.42331        14.76520        -1.78213
O          9.74940        14.71131         2.38764
H         10.16635        14.02171         2.95272
O          6.45608        14.66790        -1.58690
H          6.37803        13.70693        -1.77590
O         16.88464        12.42711         0.52500
H         17.59346        12.84399         1.05930
O         22.21327         5.97778        -3.78702
H         21.71268         5.24706        -4.22123
O          5.25440        10.38680         3.33745
H          4.34312        10.56421         3.67244
O         19.31507        17.35527         1.13094
H         20.09616        17.82186         1.49877
O          3.18498        12.24764        -1.53898
H          3.89002        12.89372        -1.76014
O         29.57713        17.19956         1.95344
H         28.81650        17.73625         2.26319
O         37.81623         8.90503        -1.80943
H         37.06020         9.03297        -2.42637
O         12.94025         3.36733        -2.55074
H         13.69128         3.08031        -3.11153
O         32.26222        10.01630        -2.36130
H         32.25398        10.94291        -2.67995
O          4.88874        17.12909         1.82635
H          5.62389        17.70042         2.13673
O         33.44493        14.25475         2.39282
H         34.04534        13.92110         3.09337
O         25.43613        11.42795         1.48191
H         25.55156        12.23644         2.03835
O         10.00660        18.86131         2.16416
H         10.74072        18.27303         2.48274
O         11.58618        16.69673         2.18755
H         10.95572        16.08690         2.65471
O         30.75769        15.09848        -1.90981
H         30.23056        14.35232        -2.27437
O         33.97839        14.64575        -1.20025
H         33.40686        15.00222        -1.91419
O         17.00142        18.60582        -2.91073
H         16.16433        18.13460        -3.11351
O         26.94847         5.43904         0.38559
H         26.85017         6.31797         0.80967
H          0.95855         1.60785         3.67941
H          0.83994         4.06694         3.42763
H          3.06344         0.38633         3.13540
H          0.65124         5.65021         1.91743
H          0.47993         8.03048         1.33608
H          0.47110         9.95765         0.53514
H          0.59710        12.10219        -0.55853
H          0.49219        14.16818        -0.50232
H          0.47201        16.63086        -0.74808
H          1.64231        18.80693        -0.78120
H          5.34563         0.38388         2.37998
H          3.72747        20.12293        -0.70002
H          7.66807         0.31846         1.40605
H          6.19057        20.20381        -0.44206
H          9.95973         0.27722         0.50603
H          8.56489        20.33315         0.19698
H         12.40966         0.27977        -0.04235
H         11.11195        20.39726         0.08813
H         14.84887         0.34691        -0.42905
H         13.51519        20.42533        -0.46237
H         17.23284         0.37596        -0.80734
H         15.94341        20.42830        -0.88066
H         19.63909         0.37048        -0.94120
H         18.56997        20.33549        -1.52896
H         22.11338         0.33313        -1.20901
H         21.00710        20.22550        -1.28670
H         24.56041         0.29446        -1.36004
H         23.31400        20.00748        -1.62230
H         27.03494         0.27337        -1.27778
H         26.08068        20.17399        -1.10607
H         29.52010         0.26221        -0.93483
H         28.24672        20.21261        -0.55901
H         31.94524         0.27530        -0.69565
H         30.71646        20.30581        -0.28379
H         34.35101         0.23090        -0.60707
H         33.18404        20.32432         0.02815
H         36.87798         0.25001        -0.06730
H         35.68488        20.26175         0.07227
H         39.00359         0.23834         0.93229
H         38.13274        20.10494        -0.01961
H         40.77732         1.46535         2.17304
H         41.47297         3.41648         3.26825
H         41.36586         5.84207         3.71206
H         41.35028         7.77292         3.93090
H         41.43942        10.22075         4.08382
H         42.35402        12.18174         2.81391
H         42.47144        14.62629         2.47081
H         42.59032        16.21635         1.29050
H         40.70528        19.69185        -0.40254
H         42.71351        18.35055         0.11118
