         261
 CSIRO Nanostructure Databank - Neutral Graphene Oxide Data Set
C        -10.52181         0.86151         2.06106
C         -9.65112         1.65895         1.18975
C         -9.07439         0.99213        -0.02854
C         -7.79584         1.57656        -0.63842
C         -6.57510         0.77862        -1.09114
C         -5.29207         1.54520        -1.43675
C         -3.99167         0.77278        -1.45509
C         -2.75712         1.44992        -0.93040
C         -1.48712         0.65574        -0.77527
C         -0.11760         1.32543        -0.95368
C          0.96515         0.64354        -0.07569
C          2.10572         1.45249         0.60772
C          3.45307         0.67071         0.62804
C          4.76430         1.44446         0.38569
C          5.95930         0.72823         0.99143
C          7.26098         1.45695         1.09231
C          8.54337         0.68110         1.20208
C          9.84595         1.39718         1.23028
C         11.04673         0.59874         0.83495
C         -9.47510         2.98909         1.38968
C         -8.37814         3.77614         0.72564
C         -7.71713         3.09237        -0.49041
C         -6.53158         3.84525        -1.01395
C         -5.26682         3.08561        -1.32752
C         -3.95345         3.76402        -1.04796
C         -2.71723         2.92947        -0.78510
C         -1.40540         3.63687        -1.03882
C         -0.09573         2.87375        -0.97029
C          1.14279         3.63223        -0.56981
C          2.24231         2.93665         0.19351
C          3.53928         3.68679         0.32567
C          4.76553         2.93385         0.74742
C          6.06607         3.65240         0.83477
C          7.35965         2.88904         0.62834
C          8.60796         3.58075         1.15003
C          9.77979         2.88939         1.29082
C         -8.69927         5.22928         0.41154
C         -7.67907         5.94318        -0.09348
C         -6.44062         5.32376        -0.67589
C         -5.14811         5.87917        -0.12343
C         -3.88091         5.09970        -0.34236
C         -2.56383         5.81332        -0.30533
C         -1.38078         5.12950        -0.92316
C         -0.07465         5.88277        -0.97629
C          1.14700         5.15090        -0.50188
C          2.46685         5.86360        -0.49543
C          3.72484         5.01100        -0.38055
C          5.09140         5.66195        -0.42114
C          6.34977         4.97069         0.13499
C          7.33974         5.71667         1.04548
C          8.43804         4.99470         1.44866
C         -7.44175         7.15203        -0.96588
C         -6.43651         8.13550        -0.27524
C         -5.10950         7.37908        -0.07381
C         -3.80933         8.01367        -0.48286
C         -2.51743         7.31673        -0.14534
C         -1.26986         8.08146        -0.43951
C         -0.02981         7.38149        -0.90615
C          1.30653         8.14800        -0.90570
C          2.57179         7.31195        -0.93125
C          3.93560         7.86614        -0.76825
C          5.05459         7.13620        -0.58702
C          6.39424         8.03037         0.99531
C          7.06112         7.02458         1.63932
C         -6.26275         9.48802        -0.93027
C         -5.08792        10.10828        -1.13370
C         -3.77644         9.41189        -1.02212
C         -2.49969        10.17447        -0.89585
C         -1.32142         9.55788        -0.64695
C         -0.08148        10.26943        -0.13667
C          1.31547         9.67816        -0.55309
C          2.33297         9.96847         0.55934
C          3.66447         9.76281         0.40187
C          4.67230         9.89522         1.45641
C          5.81749         9.18478         1.68412
C        -10.34655        -0.44981         2.36870
C         -9.23457        -1.29018         1.93247
C         -7.99502        -0.65040         1.39468
C         -7.29106        -1.42028         0.29923
C         -6.48227        -0.74166        -0.77885
C         -5.25938        -1.50203        -1.25058
C         -3.99072        -0.74842        -1.51151
C         -2.65589        -1.50868        -1.57887
C         -1.45413        -0.82031        -1.01167
C         -0.10116        -1.50101        -1.13481
C          1.04107        -0.83820        -0.36524
C          2.37606        -1.52484        -0.33949
C          3.51400        -0.81538         0.36441
C          4.87702        -1.50212         0.19938
C          5.96151        -0.78010         0.97275
C          7.25965        -1.50098         0.96719
C          8.49449        -0.71510         0.68147
C          9.72873        -1.47175         0.35952
C         11.00846        -0.72138         0.53730
C         -9.23737        -2.64603         2.06870
C         -8.13115        -3.52967         1.57868
C         -7.08282        -2.88291         0.69559
C         -5.72228        -3.45087         0.41818
C         -4.92736        -2.87989        -0.70951
C         -3.96747        -3.73796        -1.58974
C         -2.60622        -3.01307        -1.73785
C         -1.27360        -3.84057        -1.83578
C         -0.03465        -2.98140        -1.40732
C          1.26164        -3.74066        -1.15476
C          2.49091        -2.98906        -0.66017
C          3.59210        -3.73886         0.10257
C          4.78534        -2.98506         0.63498
C          6.07030        -3.64355         1.16973
C          7.40356        -3.00807         0.76215
C          8.28594        -3.49180        -0.36291
C          9.49330        -2.98584         0.43181
C         -7.87271        -4.78075         2.36916
C         -7.51145        -5.94710         1.84838
C         -5.37297        -4.85064         0.86392
C         -4.96022        -5.83067        -0.17557
C         -3.92207        -5.22821        -1.12486
C         -2.64425        -6.03435        -1.32706
C         -1.34471        -5.23500        -1.19807
C         -0.05638        -5.94368        -0.87324
C          1.26064        -5.23297        -1.08828
C          2.55329        -5.94829        -0.73142
C          3.72725        -5.21714        -0.13322
C          4.87306        -6.01215         0.46038
C          6.30694        -5.46005         0.61835
C          7.13179        -5.67736        -0.64836
C          8.19547        -4.72363        -0.95065
C         -7.30105        -7.18595         1.44208
C         -6.02344        -7.89469         1.05598
C         -4.92676        -7.28315         0.23574
C         -3.57425        -7.92771         0.19606
C         -2.59149        -7.46840        -0.85233
C         -1.27625        -8.20931        -0.79804
C          0.00479        -7.45127        -0.82403
C          1.23179        -8.14047        -0.21114
C          2.51307        -7.45461        -0.70011
C          3.77246        -8.17632        -0.46677
C          4.96121        -7.45145         0.07193
C          6.33330        -8.04845        -0.27266
C          7.12728        -6.98239        -1.06179
C         -5.70045        -9.15628         1.78676
C         -4.52068        -9.79288         1.66416
C         -3.36449        -9.22063         0.92353
C         -2.22425       -10.08053         0.51416
C         -1.22648        -9.59295        -0.25479
C         -0.02021       -10.41009        -0.68161
C          1.30048        -9.64954        -0.51507
C          2.48013       -10.30230        -0.52872
C          3.79594        -9.65507        -0.12052
C          5.04513       -10.15761        -0.83129
C          6.13767        -9.38627        -0.97461
O         -4.85756        -1.22293        -2.59541
O         -1.69842        -0.28581         0.31620
O         -7.75223        -1.37333        -1.07407
O          5.28619         3.47485         2.01509
O          3.65024        -5.47343        -1.56670
O          6.24252         7.87029        -0.39695
O         -4.60547         1.23940        -2.68524
O         -6.68154         6.24948        -1.86440
O          0.56854        -0.36176         0.90971
O         -0.11233         6.67959        -2.18580
O          1.46874        -4.55663        -2.35518
O         -2.91651        -7.92636         1.50179
O          6.40143         1.27686         2.25267
O          3.39999        -0.30043         1.71056
O          4.09919         9.26228        -0.85324
O          4.52966         4.94191        -1.58112
O         -0.85449        -5.29551         0.17681
O         -2.90083        -7.14046        -2.23545
O          3.26297        -7.99135        -1.82765
O         -7.75278         3.68640        -1.80582
O          1.97344         7.80655        -2.16113
O          7.40101         3.01232        -0.84635
O          3.65248        -3.29681         1.48468
O         -1.67848         7.76615         0.96137
O         -2.54235        -2.10218        -2.88993
O         -5.19901        -5.74773        -1.58885
O          1.64165         5.78000         0.71392
O          2.56753         3.71132         1.38607
O          7.10965         4.47524        -1.05410
O          2.87431        -1.97920        -1.64468
O          0.91298         3.27557        -1.96152
O         -4.48229         3.73286        -2.38438
O          1.22559        -8.02491         1.17352
O          9.23226         0.82249         2.47103
O         -8.13897        -3.71905         0.13205
O          0.22186        -1.96886        -2.45171
O          8.62534        -3.25433         1.63554
O         -4.53782        -2.63589         0.69521
O         -5.14544         6.59246         1.15075
O          6.95296        -5.86616         1.67452
O         -9.70780         0.12172        -0.59280
O         -5.95729        -8.08629        -0.40736
O          6.52498        -1.28451         2.20462
O         -0.49216        -8.07522        -2.03793
O         -3.04831         5.06898         0.85413
O         -2.92355         2.12151         0.39349
O         -1.59733         4.47625        -2.21349
O          8.90321        -0.86484        -0.71331
O         -7.46253         0.32212         1.91700
O         -7.63465         1.11906        -2.00782
O         -3.75991         8.25424        -1.93637
O          4.63950        -7.03526         1.44977
O         -5.11075        -5.08537         2.03462
O          1.68272        10.38306        -1.73928
H          2.46802         9.93235        -2.12559
O         -0.16410       -10.79263        -2.05123
H         -0.27869        -9.96616        -2.57605
O          1.69156         1.56424         1.97515
H          1.67698         0.65946         2.36162
O         -0.22106        10.25728         1.29335
H         -0.69552         9.44032         1.56639
O          4.89916         1.43733        -1.05935
H          5.71458         1.93368        -1.31772
O         -4.53958        -3.82641        -2.89193
H         -4.36165        -2.98005        -3.36671
O         -1.10389        -4.14022        -3.21879
H         -0.97485        -3.29110        -3.69835
O          5.36140        -1.45819        -1.14966
H          4.60751        -1.63299        -1.76951
O          7.09199        -8.35366         0.90618
H          7.05541        -7.56651         1.51239
O         -7.28189         3.76659         1.69936
H         -7.63481         4.02797         2.57593
O          0.21283         0.92340        -2.30769
H          0.74071         1.63582        -2.74007
O          5.93859        -3.75534         2.51185
H          6.77490        -4.09978         2.89785
O         -6.98708         8.43094         1.02776
H         -6.64202         7.74537         1.64664
O          3.93530        -9.83271         1.29753
H          3.21172        -9.33004         1.73474
H         11.95018        -1.25451         0.33445
H         12.02319         1.10584         0.87427
H         10.68983         3.42909         1.59701
H          9.19945         5.48217         2.07552
H          7.35932         7.16309         2.69039
H          6.32248         9.40929         2.63917
H          4.39952        10.61563         2.24545
H          1.94576        10.34703         1.51786
H         -0.08508        11.33784        -0.46537
H         -2.55014        11.27289        -0.94796
H         -5.07803        11.14125        -1.51438
H         -7.19466        10.05152        -1.09257
H         -8.30554         7.64774        -1.46287
H         -9.69304         5.65384         0.61330
H         -9.98015         3.47850         2.24024
H        -11.36642         1.39239         2.52925
H        -11.09784        -0.93858         3.00904
H        -10.10750        -3.14136         2.52938
H         -7.92620        -4.68486         3.46860
H         -8.20083        -7.81317         1.27986
H         -6.49822        -9.60353         2.39895
H         -4.36344       -10.75385         2.17739
H         -2.18332       -11.11214         0.89539
H          0.02344       -11.35202        -0.07803
H          2.48838       -11.38917        -0.71452
H          5.02009       -11.15536        -1.29769
H          7.01221        -9.78662        -1.51175
H          7.81143        -7.30888        -1.86266
H          9.05704        -5.09616        -1.52885
H         10.41611        -3.60772         0.43431
