         404
 CSIRO Nanostructure Databank - Neutral Graphene Oxide Data Set
C          1.34465         3.86261         2.57577
C          0.16740         4.41405         2.17009
C          1.26651         6.40269         1.20039
C          0.12661         5.69300         1.53870
C          1.19847         7.72929         0.64713
C          0.02754         8.47831         0.71243
C          1.16924        10.51783        -0.00946
C         -0.00426         9.82667         0.34209
C          1.14898        11.96020        -0.18179
C         -0.05711        12.69181        -0.16041
C          1.12936        14.81441        -0.34544
C         -0.06842        14.07544        -0.25776
C          1.12604        16.26681        -0.39664
C         -0.07759        16.99759        -0.52579
C          1.11114        19.12423        -0.43656
C         -0.08577        18.38080        -0.56827
C          1.10822        20.58682        -0.41069
C         -0.10127        21.31287        -0.45455
C          1.08797        23.44416        -0.33747
C         -0.11104        22.69603        -0.41319
C          1.06930        24.88319        -0.21268
C         -0.14007        25.62006        -0.19726
C          1.05875        27.71885         0.12791
C         -0.14483        26.99464        -0.06259
C          1.07156        29.18520         0.10433
C         -0.07569        29.92019        -0.27493
C          1.23012        31.95453        -0.60421
C         -0.00615        31.26942        -0.58628
C          1.33731        33.36129        -1.01057
C          0.17758        34.12898        -1.30417
C          1.51653        36.12805        -1.66911
C          0.26515        35.46608        -1.64179
C          1.62075        37.51896        -1.99850
C          3.85993         3.86998         2.55478
C          2.60799         4.58902         2.42853
C          3.83087         6.29700         0.85589
C          2.60797         5.91368         1.60196
C          3.71598         7.52559        -0.04324
C          2.39738         8.31899         0.01217
C          3.59764        10.50197        -0.38698
C          2.39830         9.79975        -0.14725
C          3.60276        11.95015        -0.45738
C          2.37418        12.67082        -0.33997
C          3.59585        14.82955        -0.44746
C          2.36439        14.10444        -0.38034
C          3.60661        16.25943        -0.35322
C          2.35091        16.98696        -0.31783
C          3.56677        19.16364        -0.08164
C          2.32226        18.40889        -0.29825
C          3.57955        20.62472        -0.29986
C          2.32755        21.32018        -0.35321
C          3.57394        23.48041        -0.30123
C          2.33060        22.74933        -0.34051
C          3.54592        24.88121        -0.14781
C          2.29809        25.58488        -0.05289
C          3.49404        27.66222         0.63644
C          2.26975        26.99433         0.17101
C          3.49625        29.21581         0.74947
C          2.28774        29.89766         0.24351
C          3.71699        31.83801        -0.32891
C          2.37151        31.24440        -0.16698
C          3.83530        33.23587        -0.84804
C          2.59308        33.99978        -1.07543
C          3.96658        36.05402        -1.33805
C          2.69292        35.38804        -1.36244
C          4.03755        37.44300        -1.65547
C          2.83493        38.14905        -2.00176
C          6.28524         3.85675         2.48413
C          5.03857         4.43442         2.08835
C          6.22531         5.69658         0.39613
C          4.99543         5.55138         1.12915
C          6.13979         7.72055        -0.75242
C          4.90618         8.36173        -0.45094
C          5.98067        10.53743        -1.06682
C          4.81139         9.76266        -0.60372
C          6.03478        11.99836        -0.88058
C          4.81184        12.68493        -0.63094
C          6.05277        14.83099        -0.71086
C          4.81919        14.11936        -0.58966
C          6.06749        16.25661        -0.59995
C          4.83919        16.94097        -0.37747
C          6.10339        19.12117        -0.46166
C          4.87803        18.39044        -0.12501
C          6.02886        20.56621        -0.64350
C          4.78398        21.31984        -0.39229
C          6.07302        23.43404        -0.27392
C          4.82926        22.75734        -0.37696
C          6.12160        24.90248        -0.17129
C          4.80369        25.65519        -0.13004
C          5.97529        27.65602         0.78499
C          4.80932        27.01702         0.45976
C          5.94372        29.06776         1.36087
C          4.79854        29.84499         0.74703
C          6.22425        31.76679        -0.06896
C          4.86638        31.32770         0.52093
C          6.27225        33.27160        -0.27488
C          5.12180        33.95449        -0.66082
C          6.39059        36.04730        -0.88115
C          5.15553        35.35675        -0.95884
C          6.45332        37.44632        -1.21716
C          5.27583        38.11260        -1.60973
C          8.78240         3.91437         2.45044
C          7.50888         4.31635         1.97668
C          8.69856         5.68705         0.29472
C          7.44997         5.18545         0.81979
C          8.62881         7.76355        -0.74023
C          7.36144         8.39216        -0.90302
C          8.56618        10.57548        -1.02018
C          7.32447         9.82495        -1.16354
C          8.51514        11.98484        -1.12474
C          7.25027        12.68838        -1.02641
C          8.50081        14.83954        -0.93863
C          7.27507        14.12242        -0.90977
C          8.51261        16.24236        -0.76074
C          7.31280        16.97125        -0.62810
C          8.55207        19.16537        -0.54186
C          7.31688        18.43306        -0.57808
C          8.58142        20.56691        -0.42974
C          7.35855        21.34537        -0.62975
C          8.53384        23.42570         0.06961
C          7.32326        22.76019        -0.24054
C          8.52655        24.82227         0.47022
C          7.32929        25.52473         0.41476
C          8.53923        27.59030         1.35180
C          7.23460        26.88667         0.95393
C          8.57721        29.07320         1.32368
C          7.29458        29.81642         1.28720
C          8.68460        31.88523         0.62663
C          7.36556        31.24016         0.77541
C          8.70226        33.30369         0.31679
C          7.51935        33.96759        -0.13150
C          8.78593        36.08359        -0.31284
C          7.56591        35.36116        -0.45584
C          8.85161        37.49134        -0.66722
C          7.69271        38.13108        -1.13195
C         11.24611         4.05496         2.30750
C          9.96712         4.53064         1.97742
C         11.02419         6.59210         0.95505
C          9.88335         5.58430         0.97240
C         11.03069         7.81915         0.02592
C          9.81523         8.45911        -0.45519
C         10.97118        10.63287        -0.77109
C          9.77376         9.89496        -0.72599
C         10.94997        11.99300        -1.12154
C          9.73405        12.69918        -1.21648
C         10.95057        14.83724        -1.31582
C          9.75878        14.15222        -1.18166
C         11.16002        16.22264        -0.76147
C          9.81214        16.91490        -0.50317
C         11.11377        19.11002        -0.44538
C          9.80313        18.39711        -0.35523
C         11.06573        20.59098        -0.24884
C          9.77493        21.30707        -0.19083
C         11.01881        23.43113         0.19172
C          9.77088        22.70212        -0.00279
C         11.00974        24.74114         0.66401
C          9.77787        25.49091         0.84656
C         11.04430        27.58585         1.67758
C          9.80134        26.84280         1.18242
C         11.06872        29.06121         1.30665
C          9.78796        29.75601         1.22565
C         11.04417        31.94791         1.43863
C          9.81355        31.19468         1.01715
C         11.10540        33.37494         0.95841
C          9.89908        34.04509         0.52200
C         11.08398        36.24711         0.57662
C          9.91246        35.43518         0.22381
C         11.22183        37.60814         0.01626
C         10.07954        38.19610        -0.56041
C         13.66746         3.97562         1.85387
C         12.42553         4.63034         1.73252
C         13.55134         6.56316         0.71685
C         12.36134         5.89259         1.05854
C         13.51190         7.94751         0.30658
C         12.23155         8.55170         0.03017
C         13.45769        10.80263        -0.22260
C         12.20095        10.00684        -0.24767
C         13.50033        12.04858        -1.04388
C         12.21638        12.67142        -1.48178
C         13.45305        14.88478        -2.05364
C         12.16498        14.14116        -1.79521
C         13.48428        16.38326        -1.90527
C         12.13109        17.06048        -1.66681
C         13.44687        19.18160        -1.24187
C         12.26752        18.46576        -1.11551
C         13.46093        20.65808        -1.03951
C         12.23732        21.40516        -0.65681
C         13.48594        23.45897        -0.07029
C         12.28045        22.78516        -0.11325
C         13.53849        24.82814         0.36182
C         12.30722        25.39084         0.94802
C         13.58216        27.59393         1.11911
C         12.34880        26.84082         1.37961
C         13.56499        29.01870         1.61491
C         12.27441        29.75257         1.30217
C         13.53991        31.88978         1.31187
C         12.33362        31.19083         1.26065
C         13.56240        33.34121         1.28240
C         12.31187        34.04466         1.08074
C         13.61978        36.21004         0.89585
C         12.33969        35.51398         1.01504
C         13.64135        37.59933         0.57391
C         12.45364        38.26221         0.12347
C         16.10335         3.89207         1.44069
C         14.86019         4.56932         1.38067
C         16.02119         6.58459         0.54174
C         14.81455         5.91088         0.87322
C         15.99242         7.97855         0.20571
C         14.74456         8.64960         0.16918
C         16.03999        10.85652        -0.26449
C         14.76172        10.12252         0.04398
C         15.99475        12.20885        -0.90112
C         14.75014        12.82923        -1.15717
C         15.91613        14.52039        -2.34373
C         14.69646        14.05924        -1.84673
C         15.89170        16.67471        -2.60334
C         14.62595        17.19902        -2.11809
C         15.84818        19.40169        -1.99534
C         14.62989        18.58714        -1.75915
C         15.97105        20.74926        -1.38420
C         14.77062        21.29771        -0.74808
C         15.99601        23.49963        -0.49393
C         14.76663        22.74003        -0.29072
C         15.91924        24.96620        -0.31663
C         14.71426        25.56601         0.31165
C         16.02492        27.68260         0.70375
C         14.74728        26.96050         0.70249
C         16.03369        29.07959         1.06538
C         14.81884        29.78055         1.27307
C         16.03671        31.91189         1.32211
C         14.80810        31.18336         1.30119
C         16.03670        33.34521         1.44249
C         14.76876        34.04877         1.36178
C         16.01290        36.21081         1.32591
C         14.80396        35.49924         1.19631
C         16.05414        37.60369         1.02362
C         14.88037        38.27094         0.61250
C         18.54394         3.82082         1.04099
C         17.28929         4.51736         1.02547
C         18.47115         6.54031         0.22156
C         17.26070         5.88493         0.59863
C         18.45797         7.92229        -0.15617
C         17.23044         8.65952        -0.11812
C         18.47112        10.68688        -0.77971
C         17.26540        10.04390        -0.42158
C         18.49045        12.16076        -0.95532
C         17.20704        12.86345        -1.21614
C         18.39557        14.90328        -2.29419
C         17.17964        14.08710        -1.92712
C         18.38449        16.42158        -2.26981
C         17.15447        17.19669        -2.32860
C         18.46635        19.37997        -2.11519
C         17.16738        18.67202        -2.28627
C         18.45042        20.84646        -1.67445
C         17.15726        21.44963        -1.27119
C         18.45553        23.51356        -0.69371
C         17.17832        22.82944        -0.80068
C         18.48442        24.98050        -0.53079
C         17.20563        25.74135        -0.31821
C         18.49163        27.70695         0.60897
C         17.22818        27.05730         0.36571
C         18.50230        29.08258         0.98962
C         17.26492        29.79072         1.10927
C         18.50338        31.91263         1.45509
C         17.26657        31.20552         1.30832
C         18.49369        33.33583         1.61274
C         17.24457        34.04209         1.59977
C         18.49952        36.27284         1.84882
C         17.17561        35.51468         1.99076
C         18.50805        37.65882         1.32656
C         17.30052        38.30235         1.03696
C         19.69889         4.44365         0.64616
C         20.88904         6.46710        -0.16895
C         19.69274         5.81278         0.23026
C         20.87703         7.78913        -0.55354
C         19.67314         8.55679        -0.55368
C         20.83759        10.59314        -1.47317
C         19.67077         9.95026        -0.90596
C         20.86693        11.90941        -1.80753
C         19.75528        12.80939        -1.46359
C         20.90137        15.02061        -1.80448
C         19.71564        14.19464        -2.06361
C         20.82722        16.37072        -1.82392
C         19.59513        17.10558        -2.02714
C         20.80727        19.23781        -1.46507
C         19.66447        18.55995        -1.86798
C         20.81999        20.61525        -1.11040
C         19.68433        21.40632        -1.09447
C         20.84555        23.41969        -0.12914
C         19.65727        22.79565        -0.66862
C         20.88505        24.72391         0.24939
C         19.77952        25.63213        -0.07390
C         20.92242        27.68020         0.76887
C         19.72750        27.01442         0.47929
C         20.93189        29.02749         1.12778
C         19.73713        29.76020         1.21056
C         20.92959        31.89556         1.69485
C         19.73505        31.19308         1.46994
C         20.92686        33.28385         1.82515
C         19.73985        34.01580         1.75321
C         20.97144        36.19088         1.22571
C         19.80195        35.50145         1.78234
C         20.94422        37.54881         1.00833
C         19.74443        38.29015         1.08497
O         18.61984        20.46493        -3.07668
O         19.41190        12.84208        -0.03369
O         12.51449        25.75402         2.37036
O          9.77070        17.51957         0.84040
O         16.34701        25.73154        -1.51059
O         12.64375        21.33704        -2.06962
O          7.16470        30.97540         2.20199
O         19.15375        14.30278        -3.40784
O          6.67677        21.03342        -1.88074
O         12.61401        10.82659         0.96521
O          4.00072        32.05496        -1.75564
O          4.27205        18.78630         1.16159
O          2.77301         7.47284        -1.15869
O         14.93946        21.61913         0.67235
O         12.56526        14.46508        -3.17733
O          2.70581         5.91949         3.06184
O          6.16491         6.33178        -0.84301
O          5.59199        25.58976        -1.37188
O          7.66300        26.99460         2.37897
O         15.85078        15.49226        -3.33199
O          8.64022         6.39097        -0.90629
O         11.43803        36.15476         1.99541
O         11.42035        19.72080         0.87860
O         15.51378        10.80729         1.11126
O          3.27567        28.32785         1.90544
O         12.97870        11.84294        -2.41772
O         16.36594        19.26218        -3.35700
O         19.38756        25.62405        -1.49150
O          6.53440        10.13518        -2.36595
O         19.32423        36.11127         3.04974
O         11.47803        17.15352        -2.97277
H         11.70232        16.32657        -3.46456
O          5.67855        28.90794         2.78595
H          6.34008        28.25694         3.12225
O         11.83148        16.03189         0.50441
H         11.34568        16.58307         1.16794
O          6.42054        31.11346        -1.34697
H          5.68066        31.40764        -1.93722
O         10.84154         7.25559         2.27183
H         11.60996         7.84984         2.41728
O         13.57928        28.89596         3.08031
H         12.69310        28.55225         3.35573
O         16.84208        35.51813         3.41202
H         17.70139        35.55060         3.89621
O         10.92531        27.60624         3.13575
H         11.17062        26.70134         3.44418
O          4.68955        31.95867         1.81765
H          5.37074        31.56911         2.42235
O         10.89280        32.05307         2.90726
H         10.02943        32.48372         3.08655
H          1.38229         2.83312         2.96062
H         -0.77354         3.86011         2.29414
H         -0.85879         6.08297         1.24980
H         -0.88988         8.02912         1.11552
H         -0.95756        10.36145         0.43372
H         -1.02015        12.17258        -0.07306
H         -1.03755        14.59065        -0.23504
H         -1.03547        16.46883        -0.61636
H         -1.04853        18.89373        -0.68982
H         -1.06311        20.78643        -0.50297
H         -1.08082        23.20980        -0.42577
H         -1.10188        25.10363        -0.31119
H         -1.10865        27.51980        -0.07642
H         -1.04817        29.41772        -0.36045
H         -0.92937        31.78216        -0.88651
H         -0.81438        33.65978        -1.26763
H         -0.64677        36.03322        -1.87773
H          0.70416        38.07326        -2.24728
H          3.88084         2.90925         3.08972
H          2.90699        39.21721        -2.25309
H          6.27215         3.08459         3.26642
H          5.31980        39.18299        -1.85999
H          8.85188         3.14348         3.23166
H          7.73489        39.19668        -1.40194
H         11.34915         3.17047         2.95326
H         10.12889        39.23645        -0.91505
H         13.71078         2.98449         2.32894
H         12.53790        39.30417        -0.21953
H         16.13537         2.85646         1.81039
H         14.93117        39.33700         0.34869
H         18.56139         2.77147         1.36925
H         17.31948        39.35137         0.70572
H         20.65406         3.89860         0.65280
H         21.83366         5.90431        -0.16312
H         21.82443         8.26259        -0.84316
H         21.70665         9.97184        -1.72967
H         21.72385        12.31954        -2.36140
H         21.84365        14.52059        -1.53786
H         21.74868        16.93180        -1.62751
H         21.75653        18.70440        -1.32872
H         21.77858        21.02589        -0.76428
H         21.71871        22.78568         0.07754
H         21.75633        25.10692         0.79916
H         21.88009        27.15099         0.67209
H         21.89999        29.51127         1.31039
H         21.88955        31.36674         1.75078
H         21.88115        33.80528         1.98034
H         21.87602        35.61563         0.98523
H         21.85626        38.05886         0.66643
H         19.74918        39.34997         0.79242
