         234
 CSIRO Nanostructure Databank - Neutral Graphene Oxide Data Set
C          1.24353         2.01596         0.40940
C          1.20061         3.43954         0.27686
C          2.42702         1.32560         0.41307
C          2.34765         4.18368         0.11154
C          1.16496         6.35980        -0.24093
C          1.16555         7.74045        -0.35988
C          2.35388         5.62634        -0.02806
C          2.35607         8.49998        -0.19598
C          1.16239        10.68575        -0.68875
C          1.16463        12.05023        -0.84062
C          2.37438         9.95161        -0.42190
C          2.36980        12.81882        -0.92099
C          1.18916        14.98887        -0.62954
C          1.22525        16.36492        -0.45929
C          2.36861        14.22548        -0.84620
C          2.44242        17.08811        -0.40847
C          2.44473        18.51978        -0.17763
C          3.68858         2.00262         0.25878
C          3.68010         3.48416        -0.08702
C          4.87651         1.33791         0.41474
C          4.79824         4.19640         0.68879
C          3.58716         6.36155         0.10173
C          3.54858         7.80012         0.07776
C          4.78596         5.68772         0.43258
C          4.76016         8.56591         0.41671
C          3.57511        10.65157        -0.46966
C          3.63184        12.03829        -0.98217
C          4.80374        10.05606         0.05998
C          4.97932        12.75178        -1.03522
C          3.63051        14.98867        -1.02891
C          3.67374        16.41670        -0.61726
C          4.93787        14.25196        -1.16364
C          4.90054        17.09517        -0.46456
C          3.59574        19.20918        -0.02142
C          4.92799        18.51701         0.06922
C          6.17634         2.01760         0.27410
C          6.15237         3.55094         0.37885
C          7.45137         1.37154         0.57817
C          7.38227         4.21602         0.81244
C          5.97191         6.41980         0.82621
C          6.04713         7.87109         0.56050
C          7.29131         5.65062         1.07283
C          7.23181         8.57634         0.55898
C          6.12100        10.70795        -0.08385
C          6.19601        12.10534        -0.45895
C          7.26349         9.99902         0.27199
C          7.38939        12.81497        -0.30757
C          6.21403        15.01835        -0.97421
C          6.15333        16.45522        -0.64189
C          7.47527        14.25907        -0.63619
C          7.37374        17.15244        -0.42140
C          6.06820        19.31466        -0.58842
C          7.38596        18.59901        -0.37355
C          8.62757         2.10121         0.65759
C          8.62312         3.55604         0.78480
C          9.89754         1.43068         0.65023
C          9.85878         4.26895         1.02057
C          8.53696         6.39187         0.94532
C          8.51334         7.81458         0.56712
C          9.74561         5.71310         1.11433
C          9.82713         8.52579         0.41461
C          8.52413        10.74464         0.50613
C          8.59314        12.18239         0.16969
C          9.82009         9.99658         0.68216
C          9.80791        12.87422         0.21136
C          8.64363        15.03510        -0.17416
C          8.59150        16.43182        -0.19605
C          9.86653        14.30513         0.03292
C          9.81649        17.19783         0.10071
C          8.55419        19.31331        -0.24945
C          9.83887        18.66967        -0.11645
C         11.08920         2.12623         0.61422
C         11.11887         3.57393         0.83283
C         12.32547         1.39085         0.40033
C         12.39994         4.17555         0.69808
C         10.89402         6.56397         1.35140
C         11.05447         7.82566         0.86079
C         12.73416         5.47932         1.12758
C         12.37849         8.46283         0.58537
C         11.13291        10.71922         0.69641
C         11.10351        12.20974         0.48607
C         12.39323         9.94956         0.40274
C         12.35928        12.88550         0.10427
C         11.10345        14.96740         0.02159
C         11.11377        16.43041         0.11256
C         12.36150        14.25906        -0.05767
C         12.35607        17.14969        -0.28008
C         11.02596        19.35526        -0.07183
C         12.32845        18.66319        -0.24382
C         13.50217         2.00664         0.05396
C         13.44300         3.49978        -0.17766
C         14.72294         1.28907        -0.22314
C         14.77699         4.18540        -0.08607
C         13.74632         6.28804         0.61361
C         13.74687         7.79198         0.88893
C         14.85942         5.56992         0.05193
C         14.85265         8.53065         0.13131
C         13.70252        10.72602         0.55870
C         13.57573        12.04764        -0.22562
C         14.88657         9.90984         0.04697
C         14.86548        12.82696        -0.21786
C         13.62607        14.98105        -0.22322
C         13.63899        16.42419        -0.19764
C         14.82752        14.25386        -0.31702
C         14.81151        17.17711        -0.15900
C         13.60998        19.31085         0.05863
C         14.78723        18.60568         0.05723
C         15.92750         1.93256        -0.41981
C         15.99330         3.39532        -0.19432
C         17.18870         1.25406        -0.60225
C         17.28027         4.13553        -0.47337
C         16.07652         6.28339        -0.26439
C         15.97093         7.75741        -0.43325
C         17.20961         5.59733        -0.63984
C         17.26404         8.51929        -0.69567
C         16.08162        10.65609        -0.32482
C         16.05297        12.09536        -0.33621
C         17.32006         9.97184        -0.48617
C         17.31118        12.82040        -0.62717
C         16.09221        14.98899        -0.52515
C         16.10296        16.50165        -0.38142
C         17.36519        14.27438        -0.35902
C         17.35423        17.13509         0.07055
C         16.08584        19.36332         0.26684
C         17.33001        18.51092         0.42959
C         18.37732         1.91502        -0.82812
C         18.39285         3.38586        -1.19246
C         19.64298         1.22548        -0.77539
C         19.72163         4.07250        -0.96343
C         18.46364         6.30206        -0.99744
C         18.51663         7.72758        -0.54650
C         19.76769         5.54159        -1.04857
C         19.83164         8.42323        -0.42740
C         18.59143        10.61106        -0.53422
C         18.60338        12.07537        -0.75403
C         19.82523         9.90564        -0.49356
C         19.87908        12.84736        -0.58605
C         18.55094        14.94890        -0.12061
C         18.54035        16.37828         0.17035
C         19.81880        14.23703        -0.08188
C         19.74570        17.00967         0.60375
C         18.50076        19.12234         0.84983
C         19.72064        18.39739         0.94154
C         20.83020         1.89779        -0.75596
C         20.88626         3.34906        -0.79683
C         22.13911         4.05027        -0.66737
C         21.04444         6.24679        -0.78141
C         21.08545         7.65837        -0.66084
C         22.20567         5.42473        -0.65710
C         22.28100         8.41189        -0.64205
C         21.07969        10.55950        -0.46139
C         21.15812        12.05082        -0.41672
C         22.26930         9.79984        -0.51272
C         22.23929        12.72609         0.31264
C         20.98449        14.85547         0.36148
C         20.96933        16.27372         0.71507
C         22.17060        14.05416         0.59097
C         22.12316        16.94948         1.13130
C         20.91421        19.03623         1.36820
C         22.09294        18.31739         1.45344
O          6.28091         2.89863        -0.90564
O         12.32402         9.08393        -0.75217
O          6.43389         6.06065         2.21481
O         19.05042         6.04644        -2.30477
O         11.24364        11.59485         1.84206
O         16.39444         8.14137        -1.79299
O          4.44009        12.10150        -2.22574
O          4.24101        14.72717        -2.35066
O         16.99229         3.69969         0.88129
O          9.17893         8.04037        -0.78651
O          4.56334         9.58901         1.44637
O         19.10418         7.89642         0.77888
O         20.81593        12.67438        -1.70188
O         17.85877        12.46732        -1.96026
O         10.49127        16.87450         1.37517
O          9.03482        10.36468         1.85294
O         16.13355        15.87200        -1.70765
O          7.15783        14.63513        -2.02978
O         11.92629         6.03463         2.13265
O         12.28154        17.90701        -1.53132
O         16.28518        20.25760        -0.84512
H         16.34439        19.71853        -1.66100
O         13.34609        11.63735        -1.60906
H         13.54121        12.39594        -2.19875
O          5.82557        19.46626        -1.99129
H          5.84731        18.57927        -2.40775
O          4.55373         4.00855         2.10519
H          5.13665         4.64885         2.58299
O         12.98799         3.68489        -1.56377
H         12.10387         3.26648        -1.64220
O         13.98943         8.01727         2.30922
H         13.39014         7.40956         2.80174
O         18.10354         3.46607        -2.61810
H         18.33479         4.38355        -2.90905
O          5.27451        18.44961         1.48681
H          4.53395        18.01390         1.95800
O         13.92632        11.01633         1.94623
H         14.01280        10.15829         2.42252
O          3.96036         3.65048        -1.50047
H          3.34091         3.08155        -2.00168
H          0.29625         1.47547         0.54459
H          0.22073         3.93293         0.35161
H          2.43151         0.23566         0.56262
H          0.21224         5.82413        -0.35495
H          0.21534         8.24525        -0.57760
H          0.19695        10.16369        -0.67675
H          0.19842        12.56546        -0.93053
H          0.21552        14.48266        -0.58345
H          0.28354        16.91163        -0.30670
H          1.47503        19.03985        -0.16065
H          4.87501         0.27241         0.69353
H          3.57486        20.29657         0.14425
H          7.48784         0.27450         0.66074
H          6.11009        20.33975        -0.14562
H          9.90858         0.33512         0.54620
H          8.52252        20.41288        -0.28912
H         12.28272         0.29320         0.47934
H         11.02173        20.45584        -0.10992
H         14.68058         0.18915        -0.26355
H         13.61855        20.38522         0.29657
H         17.20539         0.15955        -0.47401
H         15.97896        20.01765         1.17258
H         19.63353         0.12893        -0.68050
H         18.49604        20.19330         1.10031
H         21.77694         1.34474        -0.67292
H         23.05973         3.46066        -0.55153
H         23.18384         5.90447        -0.51183
H         23.24872         7.90531        -0.76000
H         23.23173        10.33055        -0.50998
H         23.10895        12.14143         0.64601
H         23.02284        14.51803         1.10601
H         23.08254        16.42102         1.20674
H         20.89056        20.10470         1.62529
H         23.01871        18.81387         1.77595
