         200
 CSIRO Nanostructure Databank - Neutral Graphene Oxide Data Set
C        -11.06500         0.63675         0.19054
C         -9.84541         1.34802         0.56998
C         -8.58485         0.67031         0.81163
C         -7.35434         1.39773         0.74754
C         -6.11812         0.68589         0.83098
C         -4.89341         1.42343         0.90212
C         -3.64118         0.65627         1.04989
C         -2.34088         1.41848         1.03489
C         -1.10872         0.68773         0.70129
C          0.10674         1.40398         0.62786
C          1.33589         0.68420         0.53120
C          2.57811         1.41360         0.43054
C          3.81514         0.73178         0.40697
C          5.03827         1.42057         0.24051
C          6.28900         0.70465         0.13266
C          7.49720         1.41767        -0.11289
C          8.72473         0.70504        -0.23592
C          9.95395         1.42793        -0.42173
C         11.17499         0.67076        -0.49713
C         -9.82016         2.73201         0.43049
C         -8.60793         3.49944         0.50263
C         -7.35779         2.80859         0.65267
C         -6.12724         3.53954         0.71589
C         -4.87785         2.81944         0.86897
C         -3.61898         3.55861         0.83363
C         -2.37843         2.87573         0.84383
C         -1.15200         3.57547         0.73040
C          0.11208         2.84823         0.67844
C          1.32705         3.53078         0.54910
C          2.56535         2.83398         0.37513
C          3.79050         3.54690         0.18959
C          5.01939         2.84194         0.09341
C          6.24736         3.55142        -0.14496
C          7.47714         2.84339        -0.23357
C          8.70251         3.55368        -0.46811
C          9.92572         2.82241        -0.53475
C         -8.59591         4.89432         0.34544
C         -7.38068         5.62900         0.38126
C         -6.14973         4.93795         0.60898
C         -4.90547         5.73543         0.90241
C         -3.63004         4.96699         0.67788
C         -2.41991         5.67670         0.51820
C         -1.18804         4.98211         0.59827
C          0.05739         5.75797         0.64855
C          1.37255         4.99938         0.63860
C          2.57723         5.70752         0.18083
C          3.77882         4.98121         0.03696
C          4.99265         5.67665        -0.24883
C          6.22645         4.96374        -0.32222
C          7.44830         5.67154        -0.57979
C          8.66331         4.95692        -0.63367
C         -7.35377         7.03234         0.14447
C         -6.13759         7.74431         0.02372
C         -4.89861         7.10244         0.27497
C         -3.67286         7.77828         0.07023
C         -2.42632         7.10670         0.24687
C         -1.20646         7.80395         0.02270
C          0.04941         7.15267         0.18244
C          1.26459         7.81252        -0.07920
C          2.52506         7.10358        -0.06483
C          3.72938         7.79037        -0.39578
C          4.96172         7.08608        -0.45019
C          6.18980         7.78375        -0.73452
C          7.39394         7.08442        -0.78277
C         -6.12465         9.12484        -0.39081
C         -4.95012         9.80233        -0.56026
C         -3.67989         9.15856        -0.35324
C         -2.47570         9.83779        -0.54945
C         -1.22333         9.19140        -0.36705
C          0.00156         9.86423        -0.57268
C          1.23976         9.20430        -0.45239
C          2.47260         9.87631        -0.70787
C          3.69205         9.20381        -0.67820
C          4.93794         9.87847        -0.95343
C          6.12560         9.20674        -0.97039
C        -11.24556        -0.69928        -0.04460
C        -10.28153        -1.71080         0.35150
C         -8.49430        -0.70724         1.04876
C         -7.32695        -1.47029         0.77018
C         -6.10175        -0.73381         0.75909
C         -4.86268        -1.43609         0.58098
C         -3.62655        -0.76467         0.64940
C         -2.39554        -1.43808         0.41058
C         -1.14868        -0.71547         0.51556
C          0.07618        -1.43486         0.43171
C          1.31497        -0.73427         0.51357
C          2.55891        -1.47552         0.53082
C          3.81402        -0.71639         0.65399
C          5.11365        -1.46438         0.53017
C          6.32700        -0.71489         0.16109
C          7.51031        -1.41724        -0.08594
C          8.73214        -0.71669        -0.22038
C          9.97164        -1.45341        -0.27956
C         11.18257        -0.70151        -0.40921
C         -9.86344        -2.85706        -0.26351
C         -8.61479        -3.55845         0.06568
C         -7.38701        -2.86822         0.44391
C         -6.14027        -3.55347         0.22448
C         -4.89909        -2.82303         0.26742
C         -3.68933        -3.42728        -0.17476
C         -2.39556        -2.80058        -0.02276
C         -1.13140        -3.52337        -0.08146
C          0.05300        -2.85825         0.27293
C          1.29422        -3.60677         0.72552
C          2.58591        -2.85696         0.52074
C          3.82891        -3.59760         0.44982
C          5.06667        -2.92020         0.32614
C          6.26181        -3.62056         0.10639
C          7.48756        -2.89480        -0.38195
C          8.77975        -3.61062        -0.06941
C          9.97013        -2.86115        -0.13344
C         -8.56790        -4.92033        -0.23217
C         -7.35930        -5.69023        -0.20492
C         -6.11713        -4.94666        -0.07482
C         -4.92025        -5.54272        -0.56114
C         -3.86092        -4.67427        -0.82646
C         -2.06711        -5.75098        -0.91853
C         -1.03155        -4.97867        -0.28931
C          0.12924        -5.69273        -0.00725
C          1.36585        -5.03326         0.26974
C          2.56578        -5.71196         0.20229
C          3.82465        -5.01626         0.33847
C          5.04104        -5.73369         0.25078
C          6.27385        -5.03251         0.15177
C          7.53419        -5.74729         0.12677
C          8.74404        -5.01331         0.07938
C         -7.31934        -7.05405        -0.46539
C         -6.00766        -7.78386        -0.34660
C         -4.86185        -6.98108        -0.95369
C         -3.55293        -7.74587        -1.20906
C         -2.28306        -7.10453        -0.79353
C         -1.22224        -7.90185        -0.16357
C          0.07518        -7.16553         0.07149
C          1.32150        -7.91975        -0.21161
C          2.60605        -7.13846        -0.17804
C          3.86256        -7.87702        -0.03978
C          5.04142        -7.18314         0.16488
C          6.30737        -7.88458         0.23024
C          7.50211        -7.17302         0.22729
C         -6.00629        -9.23401        -0.76028
C         -4.88423        -9.90689        -1.05517
C         -3.53649        -9.27752        -1.35903
C         -2.35807        -9.99904        -0.72909
C         -1.18205        -9.37421        -0.36599
C          0.04986       -10.05971        -0.10048
C          1.31553        -9.40087        -0.05274
C          2.54541       -10.04503         0.00603
C          3.83889        -9.34763        -0.38288
C          5.09846       -10.02502         0.09428
C          6.24383        -9.33647         0.31071
O          1.13558        -3.69121         2.19376
H          1.21318        -2.78095         2.55240
O         -5.66100        -7.78041         1.08713
H         -6.41117        -8.17773         1.57730
O          7.37442        -2.95693        -1.85999
H          7.45601        -3.90102        -2.11552
O         -9.60854        -1.37841         1.54951
O         -4.94577         5.98308         2.36648
H         -4.90082         5.10829         2.80914
O          4.59556        -1.08147         1.85800
O         -2.90667        -5.02939        -1.77774
O         -0.76392        -7.57572         1.20107
O          0.82029         5.54092         1.89114
O          1.90755        -7.45523        -1.47813
O          3.86963        -9.41269        -1.85760
H          3.14394        -8.81532        -2.16560
O         -2.93207         0.94989         2.30965
O         -3.34547        -9.52985        -2.78942
H         -3.86390        -8.83751        -3.26120
O         -4.36870        -7.19518        -2.30152
H         12.13814        -1.24518        -0.45303
H         12.12284         1.21589        -0.61858
H         10.86555         3.37228        -0.69499
H          9.60050         5.50255        -0.82042
H          8.32793         7.62716        -0.99328
H          7.06192         9.74443        -1.18120
H          4.91222        10.96025        -1.15199
H          2.45072        10.94815        -0.95690
H         -0.01376        10.92715        -0.85737
H         -2.49271        10.89213        -0.86432
H         -4.95882        10.85786        -0.86991
H         -7.08601         9.62954        -0.56713
H         -8.30189         7.55858        -0.04227
H         -9.54287         5.43240         0.18883
H        -10.75674         3.26567         0.20499
H        -11.89085         1.30108        -0.11506
H        -12.16493        -1.01974        -0.55965
H        -10.43769        -3.25262        -1.11530
H         -9.49831        -5.42978        -0.52557
H         -8.25024        -7.61493        -0.64028
H         -6.95593        -9.78573        -0.65990
H         -4.94986       -10.98754        -1.26095
H         -2.36574       -11.09538        -0.83915
H          0.04184       -11.16066        -0.11697
H          2.56823       -11.14352         0.08397
H          5.09885       -11.12357         0.16354
H          7.16838        -9.87653         0.56817
H          8.45644        -7.72048         0.26536
H          9.69561        -5.56103         0.16796
H         10.93621        -3.38476        -0.05597
