         210
 CSIRO Nanostructure Databank - Neutral Graphene Oxide Data Set
C         30.52239        31.58609        -0.02950
C         30.56538        32.82184        -0.25698
C         30.52312        35.93282        -0.71085
C         30.51717        37.18003        -0.82621
C         30.51427        40.31226        -0.99873
C         30.44457        41.56583        -1.05515
C         32.96389        28.94622         0.86691
C         31.84880        29.44438         0.59674
C         32.90504        31.58692         0.28214
C         31.66391        30.81670         0.27938
C         32.88687        33.00386         0.02175
C         31.66172        33.70772        -0.25663
C         32.85435        35.88736        -0.35746
C         31.64586        35.11021        -0.45311
C         32.84487        37.32262        -0.47721
C         31.62847        38.05055        -0.71182
C         32.82289        40.23600        -0.59577
C         31.61789        39.46589        -0.77762
C         32.81714        41.67667        -0.64994
C         31.56810        42.40488        -0.87946
C         32.82117        44.38219        -0.65347
C         31.72530        43.81075        -0.87150
C         35.69793        27.59318         1.61204
C         35.46899        28.93804         1.20394
C         34.25224        29.54128         0.88973
C         35.38841        31.68584         0.51257
C         34.16689        30.95005         0.56223
C         35.34786        33.09434         0.25743
C         34.10343        33.76321         0.04899
C         35.29186        35.94138        -0.03456
C         34.08058        35.18678        -0.12798
C         35.25945        37.35910        -0.08639
C         34.06102        38.07004        -0.31146
C         35.25216        40.26275        -0.25335
C         34.04550        39.52525        -0.36708
C         35.28615        41.67535        -0.27599
C         34.05273        42.38828        -0.44810
C         35.28568        44.50867        -0.07644
C         34.09731        43.82900        -0.41249
C         35.45373        45.90416         0.16012
C         38.07185        27.56640         2.06788
C         36.68063        26.96720         2.01826
C         37.97068        29.03714         1.48415
C         36.72793        29.65110         1.14647
C         37.85450        31.75157         0.49953
C         36.65628        31.03288         0.72951
C         37.81893        33.15479         0.20829
C         36.56647        33.84349         0.20020
C         37.78991        35.98367         0.05209
C         36.54666        35.25460         0.08464
C         37.79394        37.38501         0.06835
C         36.50079        38.11402         0.31552
C         37.82462        40.26662        -0.08247
C         36.52415        39.51647        -0.23558
C         37.76272        41.71826         0.11505
C         36.53547        42.38801        -0.03608
C         37.69940        44.49730         0.60832
C         36.51158        43.81520         0.15845
C         37.62046        45.90758         1.08237
C         36.34039        46.54057         0.75484
C         39.82727        24.96523        -0.19045
C         38.91618        25.58883         0.42792
C         40.38786        27.11873         1.24204
C         39.04452        26.71611         1.26188
C         40.48844        29.24717         1.35840
C         39.17161        29.77405         1.21597
C         40.31601        31.74027         0.23978
C         39.12001        31.08794         0.63097
C         40.24000        33.09552        -0.41303
C         39.02039        33.87030        -0.01699
C         40.28205        36.00025        -0.10654
C         39.03398        35.27084        -0.04120
C         40.28646        37.39963         0.06976
C         39.02402        38.11221         0.14850
C         40.23008        40.20166         0.83551
C         39.01816        39.50270         0.29599
C         40.18205        41.70060         0.61975
C         38.98646        42.40595         0.44646
C         40.18703        44.58672         0.80687
C         38.94597        43.84588         0.65835
C         40.19629        46.00396         0.89592
C         38.92641        46.69079         1.24298
C         40.06648        48.72179         0.70661
C         39.03695        48.13766         1.09138
C         42.36037        24.82191        -0.84880
C         41.17291        25.37898        -0.28864
C         42.64895        27.41715         0.20871
C         41.41717        26.64592         0.38433
C         42.74758        28.86399         0.33419
C         41.60724        29.71018         0.64931
C         42.75442        31.71766        -0.26695
C         41.55062        31.06450         0.19363
C         42.71865        33.15109        -0.50046
C         41.53875        33.85796        -0.36141
C         42.71794        36.04117        -0.42809
C         41.51976        35.30823        -0.32727
C         42.74893        37.44575        -0.16545
C         41.51860        38.12970         0.09323
C         42.73058        40.23028         0.42906
C         41.52499        39.53230         0.38735
C         42.74697        41.66584         0.80236
C         41.42232        42.42757         0.90257
C         42.66531        44.58217         0.66234
C         41.43860        43.89246         0.76050
C         42.64131        46.01663         0.56055
C         41.40410        46.74181         0.67052
C         42.63946        48.78998         0.35555
C         41.38333        48.20361         0.57171
C         43.45590        25.42589        -0.76951
C         45.03595        27.38763        -0.46264
C         43.78424        26.73776        -0.34767
C         45.13310        28.80438        -0.35364
C         43.92410        29.54392        -0.10889
C         45.20325        31.61880        -0.77889
C         43.93450        30.96858        -0.33369
C         45.21056        33.08548        -1.11972
C         43.86633        33.85315        -1.19824
C         45.27105        36.07767        -0.70803
C         43.95133        35.35510        -0.88346
C         45.24730        37.47231        -0.20154
C         43.99480        38.15991        -0.08554
C         45.20730        40.29028         0.29547
C         43.98414        39.56285         0.20163
C         45.20161        41.72574         0.41016
C         43.97053        42.44479         0.55464
C         45.16092        44.58030         0.39942
C         43.92918        43.85596         0.56285
C         45.11556        46.00727         0.33673
C         43.89066        46.71097         0.38820
C         43.69247        48.09704         0.30800
C         47.41760        27.34084        -0.58018
C         46.30791        26.77701        -0.65823
C         47.64303        28.74076        -0.45161
C         46.41064        29.48215        -0.43388
C         47.72041        31.57186        -0.53576
C         46.48187        30.90018        -0.51080
C         47.79164        33.03878        -0.84356
C         46.52739        33.88731        -1.22279
C         47.67622        35.94203        -0.23875
C         46.52234        35.28914        -0.60306
C         47.70292        37.38296         0.02103
C         46.46236        38.13270         0.02055
C         47.67012        40.25306         0.36094
C         46.46514        39.57460         0.23384
C         47.74863        41.75028         0.57439
C         46.42006        42.45687         0.37522
C         47.68968        44.56745         0.14600
C         46.40906        43.85946         0.32320
C         47.49029        45.97632         0.14918
C         46.40794        46.59043         0.21131
C         50.14187        28.83733         0.03513
C         48.85964        29.41486        -0.27081
C         50.21693        31.48581         0.08736
C         48.90108        30.83050        -0.22386
C         50.28272        32.98561         0.01306
C         49.05247        33.75853        -0.42039
C         50.15987        35.88265         0.54548
C         48.91792        35.17203         0.06646
C         50.18457        37.36395         0.38004
C         48.92157        38.04482         0.22733
C         50.23813        40.26931         0.18051
C         48.93407        39.51456         0.40491
C         50.22378        41.72710        -0.09990
C         48.85363        42.36424        -0.32607
C         50.16376        44.36624        -0.36316
C         48.86456        43.89974        -0.13596
C         51.23722        29.29764         0.38868
C         52.52769        31.53245         0.93345
C         51.27727        30.69060         0.98355
C         52.45782        32.77125         0.89815
C         51.45053        33.73653         0.58724
C         52.52920        36.01639         0.81646
C         51.45448        35.09875         0.63642
C         52.53613        37.23226         0.53063
C         51.39592        38.06500         0.30446
C         52.62324        40.32758        -0.03079
C         51.43738        39.42977        -0.30707
C         52.57156        41.55426        -0.22235
C         51.42469        42.42890        -0.25493
C         51.29802        43.83953        -0.54602
O         49.20012        35.32154         1.50605
O         37.32264        39.77064        -1.41384
O         48.81428        33.46274        -1.81089
O         50.78874        32.12086        -1.07475
O         40.72196        28.12236         2.15786
O         49.83392        39.93581         1.54282
O         42.13481        41.94230         2.12073
O         44.59208        36.02648        -2.02246
O         38.20707        46.15750         2.36775
O         45.19436        32.07196        -2.18560
O         43.44653        33.80298        -2.58732
H         44.05225        34.40242        -3.08204
O         48.10400        41.99400         1.95566
H         48.81086        41.34362         2.19764
O         51.30510        39.27976        -1.72344
H         52.04818        38.73354        -2.05507
O         40.04045        32.83680        -1.85641
H         40.91905        32.64324        -2.25170
O         36.39567        38.30134         1.77149
H         36.41156        37.41608         2.19304
O         50.79371        30.64677         2.29562
H         51.43357        30.17584         2.86777
O         40.18483        40.01590         2.29636
H         40.90460        40.58720         2.66531
O         48.48626        42.10036        -1.69563
H         49.20263        42.42642        -2.28042
O         46.63613        34.18399        -2.63268
H         46.50186        33.33773        -3.11608
O         38.50943        27.68704         3.40548
H         38.72437        26.80029         3.75929
