         300
 CSIRO Nanostructure Databank - Neutral Graphene Oxide Data Set
C         30.46432        31.43403         1.05818
C         30.36845        32.66939         1.29600
C         30.43426        36.01023         1.51829
C         30.59402        37.29695         1.63523
C         30.97232        40.52027         2.06525
C         31.11185        41.74545         2.07185
C         32.92750        28.68978         0.13867
C         31.86719        29.27729         0.50842
C         32.76338        31.50575         0.24659
C         31.52595        30.61318         0.66725
C         32.76554        32.85997         0.98871
C         31.36938        33.67007         0.75346
C         32.61853        35.80323         0.66359
C         31.41430        35.09233         1.23991
C         32.66286        37.30079         0.54025
C         31.59346        38.12026         1.21499
C         32.74872        40.20301         0.43846
C         31.99327        39.51869         1.60989
C         32.74022        41.70654         0.18251
C         31.68382        42.77998         1.21169
C         33.71658        44.20443         0.99593
C         32.77410        43.71675         1.63408
C         35.64250        27.33197        -0.57861
C         35.48297        28.75973        -0.35886
C         34.26104        29.29954         0.26709
C         35.25530        31.65697        -0.01957
C         34.12902        30.81598         0.42487
C         35.20647        33.04570         0.24633
C         34.01394        33.66846         0.64852
C         35.24121        35.89169         1.00314
C         33.91561        35.11083         1.08169
C         35.24483        37.44911         0.97323
C         34.03969        37.90622         0.14115
C         35.16372        40.12451        -0.58295
C         33.92535        39.42017        -0.05908
C         35.11948        41.58863        -0.94365
C         33.85716        42.37131        -0.57472
C         35.11047        44.49382        -1.24152
C         33.92637        43.92466        -0.47667
C         35.34466        45.93651        -1.00593
C         37.92178        27.44061        -1.47526
C         36.68312        26.87837        -1.08851
C         37.76278        28.99118        -1.51917
C         36.51220        29.54941        -0.81892
C         37.69319        31.60382        -0.04051
C         36.43878        31.07260        -0.76706
C         37.85846        33.11656        -0.10401
C         36.44146        33.89071        -0.15074
C         37.78794        35.98771         0.79098
C         36.50619        35.17773         0.67764
C         37.80716        37.48229         0.78257
C         36.51801        38.07455         0.29486
C         37.74976        40.29997        -0.26129
C         36.50367        39.45594        -0.30820
C         37.70496        41.61755        -0.65414
C         36.47448        42.30298        -1.27692
C         37.65522        44.52387        -1.15427
C         36.48629        43.82152        -1.04594
C         37.70384        46.04184        -1.24253
C         36.36851        46.61595        -1.02764
C         40.46449        24.73562        -1.69538
C         39.44492        25.44013        -1.77988
C         40.38303        27.65941        -1.92291
C         39.09197        26.81602        -1.78063
C         40.24763        28.67677        -0.71330
C         39.10305        29.72539        -1.07933
C         40.24044        31.42624         0.43859
C         38.93705        30.77341         0.01242
C         40.26518        32.89105         0.82196
C         38.96790        33.68705         0.78823
C         40.35594        35.96660         0.94384
C         39.03862        35.17438         0.91899
C         40.24413        37.31263         0.11048
C         39.13416        38.25675         0.71498
C         40.23020        40.28675        -0.11634
C         39.04112        39.62017         0.00874
C         40.21607        41.80226        -0.18355
C         38.98921        42.35307        -0.89551
C         40.28761        44.68070        -1.36545
C         38.97965        43.82618        -1.24816
C         40.22140        46.02452        -0.65360
C         38.98256        46.80004        -0.99233
C         40.06268        49.01227        -0.70908
C         39.06794        48.22874        -0.67579
C         42.94018        24.87155        -0.95749
C         41.80875        25.33819        -1.74485
C         42.88998        27.69415        -1.40379
C         41.71224        26.89443        -1.83692
C         42.80303        28.71033        -0.45490
C         41.54387        29.42159        -0.34630
C         42.77795        31.49354         0.18429
C         41.50788        30.73024         0.10219
C         42.83562        32.92541         0.62097
C         41.57017        33.67526         0.88201
C         42.77889        35.77688        -0.08833
C         41.52763        35.12070         0.43032
C         42.73973        37.27040        -0.55574
C         41.61273        38.06567         0.17657
C         42.83052        40.26029        -0.04170
C         41.52933        39.52635        -0.40548
C         42.79840        41.79540        -0.03640
C         41.52957        42.40200        -0.66101
C         42.78270        44.65303        -0.67782
C         41.55253        43.87406        -1.00816
C         42.68998        45.96175        -0.25983
C         41.36097        46.55191        -0.09336
C         42.67875        48.96265        -0.61829
C         41.33477        48.82691        -0.17674
C         43.78584        25.09891        -0.10095
C         45.29955        26.99989         0.11051
C         44.36335        26.15659         0.69444
C         45.29000        28.48860         0.40654
C         43.94506        29.24728         0.42321
C         45.30841        31.46014         0.76804
C         44.06989        30.74553         0.17396
C         45.29736        32.95311         0.41887
C         44.11263        33.63610         0.33984
C         45.37520        35.68437        -0.31796
C         44.10863        35.15636         0.38685
C         45.40931        37.22665        -0.39496
C         44.11124        37.99901        -0.50256
C         45.43904        40.21887        -0.37061
C         44.12145        39.49354        -0.20692
C         45.40054        41.72142        -0.34812
C         44.06650        42.44074        -0.68776
C         45.27376        44.67258        -0.04761
C         44.02763        43.90314        -0.31164
C         45.17189        46.10845        -0.67365
C         43.98647        46.82092        -0.01214
C         43.62482        48.16107        -0.60515
C         47.41424        27.39703        -1.12745
C         46.43499        26.73003        -0.69434
C         47.84843        28.51938        -0.23239
C         46.57913        29.23996         0.27959
C         47.84751        31.46814         0.43898
C         46.56537        30.74506         0.22892
C         47.76551        32.88835         1.04609
C         46.56091        33.67565         0.52915
C         47.79123        35.83369         0.68195
C         46.60781        35.04623         0.34931
C         47.82879        37.20182         0.58132
C         46.70192        37.95005        -0.04496
C         47.78818        40.19201         0.70387
C         46.69379        39.45106        -0.00513
C         47.75811        41.71338         0.71753
C         46.50737        42.46283         0.36587
C         47.87437        44.52106        -0.31088
C         46.60500        44.01338         0.36635
C         47.58748        45.85824        -0.75876
C         46.59541        46.59654        -0.59958
C         50.44810        29.10175        -0.79647
C         49.13047        29.26976        -0.16209
C         50.41314        31.47140         0.59419
C         49.14333        30.68086         0.46827
C         50.29479        32.89762         1.11430
C         49.05528        33.66039         0.67438
C         50.21508        35.80395         1.67846
C         48.98789        35.08517         1.20269
C         50.18024        37.34978         1.70354
C         49.15912        37.94941         0.66901
C         50.31047        40.25057         1.15116
C         49.02963        39.44068         1.03945
C         50.28313        41.58832         0.40856
C         49.08830        42.51552         0.77180
C         50.34790        44.11788        -0.55661
C         49.02727        43.82599        -0.12284
C         51.52941        29.65898        -0.56563
C         52.79369        31.65648         0.67371
C         51.72070        31.10322        -0.23561
C         52.70156        32.77169         1.20859
C         51.54362        33.59635         1.59534
C         52.49234        35.79521         0.67815
C         51.61088        35.09551         1.76804
C         52.36754        37.06219         0.76982
C         51.51790        38.00341         1.29762
C         52.68820        40.18954         0.61524
C         51.63092        39.45129         1.30925
C         52.70604        41.32152         0.12293
C         51.55255        42.13519        -0.27099
C         51.47327        43.58629        -0.51411
O         48.77608        28.25765         0.82335
O         39.07158        42.78118        -2.27641
O         38.47312        46.53345        -2.33263
O         32.60283        41.98590        -1.21678
O         43.58304        39.80625         1.11746
O         36.00298        35.17225         2.04768
O         46.75721        42.04108         1.73602
O         43.59607        31.27083        -1.06134
O         45.78357        40.98605        -1.55887
O         45.29453        31.32023         2.15210
O         34.72394        44.25017        -2.63898
O         36.18879        34.19165        -1.49048
O         39.93927        27.99078         0.41859
O         34.92835        40.55406        -1.95735
O         47.20651        38.74360        -1.18916
O         38.76833        34.28379         2.07694
O         46.10930        28.78255         1.58710
O         37.67688        36.81616         2.04040
O         49.96812        30.60354         1.66396
O         41.65942        42.80506        -2.02252
O         41.31124        47.71778         0.74034
O         39.50020        38.56878         2.03222
O         51.00790        40.18197         2.40140
O         37.97578        30.75033         1.09770
O         40.21431        31.85879         1.83532
O         47.23441        31.36869        -0.90457
O         44.36140        44.34589         1.04722
O         37.66815        29.30461        -2.96295
O         48.04145        39.69559         2.06346
O         49.25672        35.25883         2.62537
O         32.69317        39.55535        -0.85205
O         42.40105        33.27238         1.99805
O         36.62030        38.24925        -1.14109
O         44.90272        37.69503        -1.68273
O         50.64585        32.97139         2.52720
O         42.07737        26.03088        -2.98001
O         41.87331        35.06037        -0.99261
O         34.38313        29.95799         1.55992
O         32.25761        36.42454        -0.59239
O         50.54590        41.40133        -1.01578
O         30.77397        43.41092         0.42301
H         31.25765        43.96124        -0.24627
O         44.03519        27.36172        -2.00409
H         43.83992        26.65589        -2.66990
O         36.63363        42.18776        -2.71305
H         36.22422        41.32627        -2.97727
O         40.43413        44.98963        -2.76216
H         40.42073        44.13130        -3.24389
O         45.31092        35.18748        -1.66580
H         46.01095        35.61875        -2.19845
O         41.97931        38.13797         1.53962
H         41.16841        38.43997         2.04959
O         32.76229        44.47977        -1.09515
H         32.95957        44.63924        -2.04724
O         49.29814        42.95481         2.10112
H         48.45603        43.36258         2.41857
O         34.32963        37.38854        -1.15995
H         33.68284        37.76681        -1.79404
O         39.85724        37.02027        -1.22497
H         40.56853        36.47448        -1.64845
O         36.36545        31.56718        -2.12136
H         36.24453        32.57008        -2.08408
O         40.65080        36.21421         2.31488
H         39.97591        36.86430         2.64794
O         44.22686        35.53812         1.77371
H         43.60056        34.98906         2.30379
O         47.63560        32.75633         2.45785
H         46.79479        32.24235         2.63384
O         40.38233        28.31283        -3.19853
H         40.56485        27.63718        -3.88728
O         42.76438        42.19327         1.34984
H         43.27937        41.52860         1.86777
O         43.98826        42.47913        -2.11196
H         44.27380        41.61191        -2.47907
O         31.13211        33.76822        -0.65411
H         31.01752        34.71081        -0.91480
O         52.17310        35.39948         3.01514
H         52.76851        34.67533         3.29934
O         36.29812        29.11435        -3.38158
H         35.93347        30.03586        -3.27985
O         49.83218        37.78070         3.00190
H         49.43795        37.01892         3.48620
O         33.62169        35.06087         2.53795
H         34.49397        34.94201         2.99110
O         32.82984        32.54123         2.37949
H         33.01169        33.38420         2.86740
O         35.78634        44.70091        -3.50754
H         36.34717        43.87936        -3.58912
O         41.54000        39.52211        -1.85003
H         40.84101        38.90413        -2.16241
O         35.18327        37.95852         2.29930
H         35.96219        37.58344         2.77868
O         38.46448        33.32987        -1.40260
H         37.76874        33.80417        -1.94851
O         32.67284        31.67683        -1.16106
H         31.98880        32.36350        -1.36326
O         49.09802        33.78326        -0.76322
H         48.65936        33.01075        -1.18249
O         40.03681        42.28135         1.18275
H         40.85504        42.06385         1.69213
O         44.82197        45.97878        -2.04331
H         45.59255        45.67535        -2.56594
O         43.52149        29.18361         1.81407
H         44.12619        29.81379         2.30517
O         46.81880        44.43092         1.73095
H         45.95629        44.36372         2.20184
O         42.40452        37.21749        -1.94906
H         43.20525        36.91003        -2.43269
O         32.96399        39.39608         2.65642
H         32.54981        38.97012         3.43560
O         39.59389        30.53882        -2.13684
H         39.63580        30.01170        -2.96894
O         49.77820        37.85702        -0.62439
H         49.10561        38.11941        -1.29848
O         51.68377        31.86516        -1.41559
H         52.46162        31.65046        -1.97003
O         44.22746        47.01554         1.36025
H         43.42410        47.39402         1.77637
O         43.62976        26.49364         1.75859
H         43.80489        27.42728         2.06428
