         255
 CSIRO Nanostructure Databank - Neutral Graphene Oxide Data Set
C         30.50656        31.96089         0.24946
C         30.38301        33.07206        -0.29614
C         30.51689        36.14310         0.08094
C         30.61945        37.33446         0.41237
C         30.94166        40.43561         1.43334
C         30.92502        41.68754         1.53318
C         32.58838        28.82017         0.84019
C         31.96654        29.89376         0.78551
C         32.85699        32.05079         0.13181
C         31.70403        31.23157         0.51844
C         32.76669        33.22124        -0.58577
C         31.40159        33.86032        -1.06511
C         32.74557        36.10423        -0.85546
C         31.42177        35.37271        -0.79739
C         32.94537        37.42399        -0.13976
C         31.84545        38.12929         0.62204
C         33.05579        40.30578         0.38558
C         31.97332        39.59422         0.85300
C         33.20542        41.78706         0.60686
C         31.49131        42.63277         0.55814
C         32.98876        44.58308         0.20748
C         32.06791        43.96888         0.77103
C         35.72644        26.73946         0.63640
C         34.80969        27.80804         0.60952
C         33.41528        27.69259         0.81528
C         35.30575        31.72353        -0.49588
C         34.20527        31.54105         0.53129
C         35.31594        33.10236        -1.13603
C         34.00643        33.85806        -1.13482
C         35.34550        36.08626        -1.01869
C         34.02787        35.36849        -1.18985
C         35.34995        37.51711        -0.61019
C         34.18106        38.18947        -0.45977
C         35.39846        40.41262        -0.63440
C         34.05812        39.68851        -0.58331
C         35.43235        41.76817        -0.62609
C         34.15509        42.48868        -0.36308
C         35.34343        44.72077        -1.07785
C         34.10232        43.97419        -0.56483
C         35.49960        46.10091        -0.50789
C         38.09551        26.72821         1.21644
C         36.89028        26.30371         0.56495
C         37.77525        29.06875         0.89663
C         36.55674        29.59846         0.37542
C         37.89515        31.49821        -0.91268
C         36.54634        30.86141        -0.44038
C         37.88440        33.04695        -0.85304
C         36.64142        33.82024        -1.14973
C         37.78842        35.94281        -0.17621
C         36.64965        35.31847        -0.98734
C         37.92215        37.43650        -0.46497
C         36.63929        38.22004        -0.23460
C         37.95648        40.36357        -0.78442
C         36.64625        39.63296        -0.81693
C         37.95578        41.82749        -0.63809
C         36.68862        42.53589        -1.05246
C         37.83496        44.65133        -0.26164
C         36.65711        43.99485        -0.66876
C         37.85883        46.09943        -0.08569
C         36.55739        46.64061        -0.12980
C         41.04435        24.49206         0.89311
C         39.88263        24.94197         0.88421
C         40.49061        27.01553         1.81752
C         39.36258        26.21838         1.28624
C         40.26726        29.23140         1.21479
C         39.01337        29.69973         0.65829
C         40.35109        31.69364        -0.14112
C         39.03361        31.02691         0.01828
C         40.39372        32.97059        -0.97142
C         39.06495        33.72233        -0.78008
C         40.39346        35.89428        -0.34332
C         39.09571        35.15482        -0.34626
C         40.40491        37.40927        -0.03565
C         39.09893        38.10305        -0.40327
C         40.41323        40.30575        -0.37344
C         39.09257        39.60239        -0.12580
C         40.41195        41.79659        -0.19190
C         39.09222        42.51198        -0.19746
C         40.24149        44.58071         0.59046
C         39.05488        43.91511        -0.00137
C         40.36335        46.06683         0.40884
C         39.10637        46.84255        -0.01921
C         40.30655        48.85600         0.64201
C         39.25913        48.24961         0.36601
C         43.50259        24.84535         1.77699
C         42.02619        25.03952         1.92456
C         42.90133        27.63351         1.99846
C         41.79447        26.60526         1.87188
C         42.81060        29.05172         1.35548
C         41.53312        29.64722         0.82393
C         42.90265        31.66072        -0.06093
C         41.61144        30.89179         0.01500
C         42.84147        33.12842        -0.35757
C         41.65834        33.75025        -0.63696
C         42.86754        35.92141        -0.68415
C         41.57109        35.21966        -1.09033
C         42.87958        37.38246        -0.37666
C         41.61315        38.14914        -0.65310
C         42.82495        40.23945         0.18517
C         41.67311        39.58057        -0.16103
C         42.79474        41.65376         0.58384
C         41.63484        42.38964         0.39509
C         42.82413        44.55326         0.96966
C         41.52549        43.80796         0.82386
C         42.80452        46.03013         1.18359
C         41.48868        46.77779         1.14238
C         42.86943        48.77517         1.44848
C         41.48628        48.30957         1.31673
C         44.28992        25.62872         2.34081
C         45.54302        27.77980         1.81385
C         44.31920        27.08052         2.27013
C         45.34393        28.86452         0.70496
C         44.10681        29.73504         0.93587
C         45.42878        31.77603         0.37309
C         44.14035        31.01453         0.45652
C         45.42962        33.22146        -0.09832
C         44.15453        33.77720        -0.63447
C         45.39853        36.02387        -0.77317
C         44.16769        35.26914        -0.95545
C         45.36644        37.40531        -0.50455
C         44.15218        38.10169        -0.36203
C         45.37326        40.11874         0.62832
C         44.09424        39.45868         0.23668
C         45.36868        41.56021         1.09325
C         44.02383        42.28067         1.20155
C         45.28475        44.51710         1.53551
C         43.96302        43.77040         1.62961
C         45.25865        45.88774         1.76000
C         43.97056        46.62793         1.99825
C         43.88496        48.10536         1.64991
C         47.84322        27.58263         0.99402
C         46.84358        27.15022         1.56715
C         47.99910        28.87715         0.32654
C         46.63622        29.61342         0.28435
C         47.91440        31.77620         0.03445
C         46.71037        31.07886         0.25826
C         47.91323        33.19856        -0.31975
C         46.70213        33.85114        -0.51901
C         47.95648        36.02145        -1.09780
C         46.64879        35.25952        -0.98604
C         47.92762        37.52499        -0.87552
C         46.63456        38.18736        -0.51053
C         47.92059        40.31969         0.21739
C         46.68364        39.47754         0.26337
C         47.78337        41.79215         0.44729
C         46.63316        42.34908         0.95994
C         47.82588        44.56613         1.38823
C         46.59192        43.70460         1.67258
C         47.56345        45.85351         1.75514
C         46.51804        46.51852         2.09900
C         50.44309        29.24833         0.91793
C         49.19540        29.69544         0.47665
C         50.42625        31.84646         0.16890
C         49.18795        31.09781         0.19900
C         50.42098        33.17921        -0.34676
C         49.19100        33.90085        -0.55903
C         50.42351        36.07122        -1.33342
C         49.20820        35.27660        -0.85355
C         50.46865        37.48597        -0.71993
C         49.19782        38.22484        -0.45995
C         50.30399        40.48655        -0.49733
C         49.17579        39.73184        -0.35109
C         50.25765        41.97867        -0.35483
C         48.95912        42.63034         0.06953
C         50.30566        44.59148         0.69102
C         48.94093        44.09154         0.57580
C         51.54265        29.87066         0.97719
C         52.80152        32.07583         0.47963
C         51.67843        31.20644         0.59769
C         52.85120        33.16451        -0.11209
C         51.71112        33.85986        -0.70416
C         52.84483        36.21614        -0.97652
C         51.74450        35.27310        -1.17339
C         52.87029        37.43950        -0.81964
C         51.70538        38.33548        -0.97843
C         52.73683        40.70560        -0.55107
C         51.61965        39.81417        -0.85887
C         52.74262        41.84979        -0.08204
C         51.63237        42.79174        -0.20579
C         51.39543        44.05445         0.47479
O         40.55182        41.17661        -1.53776
O         44.24689        34.25821        -1.99826
O         51.63374        39.14879        -2.15451
O         37.39678        39.83662        -2.04955
O         41.36206        35.13813        -2.44916
O         33.52912        43.06682        -1.56420
O         37.80289        27.98446         1.80655
O         45.39941        32.90132         1.32800
O         36.60250        38.34064         1.18814
O         31.79412        36.13736        -1.97281
O         41.12024        47.42241         2.39544
O         45.10185        27.91656         3.16026
O         50.94404        42.69147        -1.44313
O         39.56120        31.95354         1.05421
O         47.27730        29.00127        -0.90712
O         44.63437        41.60348         2.34980
O         35.30793        29.07480         0.37672
O         44.65940        39.29406         1.60177
O         38.18562        31.05996        -2.17974
O         39.97175        35.17779         0.84900
O         47.20005        38.30059        -1.86543
O         35.51130        30.68613        -1.47507
O         42.69600        28.80216         2.80908
O         47.26184        35.55007        -2.29203
O         51.84990        34.21458        -2.13181
O         40.16688        28.29937         2.25265
O         36.92117        34.72536        -2.27363
O         34.42863        31.10013         1.64463
O         34.69164        35.93849        -2.33540
O         42.81840        36.37136         0.69396
O         49.93710        37.55972         0.62654
O         40.59805        44.07572         1.92782
O         43.18664        45.45734        -0.10527
O         32.83058        37.31846         1.33178
O         48.57695        43.76351        -0.78877
O         47.57491        39.50230         1.41222
O         34.51396        33.18816        -2.33762
O         42.40649        30.84712        -1.20138
O         40.14711        46.43146        -0.97167
O         30.86967        42.54016        -0.65337
H         31.22840        43.21384        -1.26933
O         37.37588        35.83624         1.20217
H         37.04465        36.74133         1.49886
O         32.88288        26.46118         0.99705
H         33.58903        25.78308         0.95446
O         38.86367        39.75998         1.29550
H         38.04090        39.21984         1.51827
O         40.52627        32.66778        -2.35510
H         40.77655        33.52796        -2.80363
O         31.28609        33.64033        -2.44714
H         31.43559        34.49250        -2.91971
O         43.63934        43.75982         3.04415
H         42.82231        43.23569         3.18636
O         40.54941        37.58351         1.37792
H         40.11147        36.81375         1.81388
O         33.46991        39.88100        -1.90530
H         33.40799        40.84422        -2.08987
O         46.63821        43.35357         3.08259
H         45.79064        42.89291         3.30433
O         43.63605        46.50329         3.36748
H         44.42929        46.68998         3.91140
O         33.67543        42.04962         1.90415
H         33.19705        41.48178         2.54465
O         36.67118        42.48527        -2.53363
H         36.84742        41.54368        -2.79052
O         35.28362        44.81965        -2.49142
H         35.72441        44.02231        -2.87870
O         50.23627        36.27962        -2.74077
H         50.43339        35.43874        -3.20959
O         41.61937        24.60287         3.19158
H         41.88438        23.66943         3.31897
O         41.49625        38.20654        -2.08696
H         40.75898        38.80217        -2.33912
O         44.93085        28.06010        -0.42495
H         45.66821        28.05657        -1.08295
