         280
 CSIRO Nanostructure Databank - Neutral Graphene Oxide Data Set
C         30.41998        31.79044        -0.80936
C         30.59751        32.94596        -1.21703
C         30.53120        35.81473        -0.65950
C         30.45108        36.96614        -0.20253
C         30.40918        40.31524         0.30731
C         30.30929        41.49746         0.66057
C         32.55443        28.94050         0.24332
C         31.48636        29.55288         0.04262
C         32.85937        31.59547        -0.32268
C         31.11116        30.97618         0.17954
C         32.91312        33.09249        -0.51401
C         31.87218        33.69047        -1.50660
C         32.94441        35.94970        -0.75344
C         31.73970        35.25260        -1.45551
C         32.83712        37.24666        -0.33737
C         31.51457        37.97464        -0.32791
C         32.85430        40.32494        -0.09111
C         31.51300        39.45633        -0.12777
C         32.78462        41.57247         0.80581
C         31.26737        42.58306         0.34895
C         32.66678        44.31007         1.51440
C         31.62122        43.72268         1.19309
C         35.32229        27.38894        -0.00474
C         35.09114        28.79425         0.20276
C         33.90060        29.43789         0.35805
C         35.20962        31.62981         0.71082
C         33.83404        30.92315         0.68268
C         35.23068        33.11093         0.42220
C         34.05154        33.77436        -0.21839
C         35.36970        35.88110        -0.10675
C         34.25741        35.16636        -0.85873
C         35.10654        37.15560         0.40719
C         34.09374        38.06082        -0.27129
C         35.26046        40.14921         0.58410
C         34.09977        39.49478         0.25460
C         35.27688        41.57513         1.03346
C         34.05835        42.44605         0.71715
C         35.34609        44.44444         1.73983
C         34.01244        43.71836         1.60668
C         35.48904        45.89989         1.75819
C         37.70743        27.18378         0.11855
C         36.32505        26.69383        -0.19078
C         37.62531        28.73227        -0.13765
C         36.39162        29.49188         0.23032
C         37.76386        31.55248         0.49363
C         36.48132        30.85163         0.49954
C         37.72841        33.01075         0.94982
C         36.55412        33.78101         0.35908
C         37.82676        35.89301         0.40456
C         36.55268        35.15871         0.30976
C         37.91158        37.35200         0.34245
C         36.82759        38.26518        -0.13561
C         37.86208        40.28057         0.57644
C         36.60218        39.46284         0.80343
C         37.85581        41.64969         0.75466
C         36.60088        42.31811         1.17021
C         37.76942        44.51019         0.89739
C         36.59891        43.79072         1.23805
C         37.77105        45.94238         0.87154
C         36.51196        46.43471         1.27366
C         40.18252        24.45164        -0.71389
C         39.12629        25.07755        -0.58345
C         40.21006        27.26263        -0.54915
C         38.86888        26.52115        -0.58644
C         40.21812        28.66503         0.08450
C         38.94019        29.47321        -0.17546
C         40.28954        31.54759         0.25934
C         38.96644        30.90011         0.24075
C         40.33886        33.01760         0.49830
C         39.05453        33.74783         0.74272
C         40.23118        35.93613        -0.04390
C         39.00436        35.18838         0.43610
C         40.32349        37.21646         0.81399
C         39.07084        38.04846         0.60572
C         40.29893        40.23317         0.62909
C         39.11134        39.51579         0.57906
C         40.26467        41.65168         0.06876
C         39.05676        42.42841         0.56543
C         40.24458        44.59364         0.31854
C         39.03609        43.81300         0.61422
C         40.22369        45.96814         0.27892
C         39.00373        46.76511         0.72596
C         39.93925        48.58989        -0.63509
C         38.95923        47.94977        -0.23455
C         42.79019        24.38177        -0.22276
C         41.54797        24.96425        -0.76163
C         42.68847        27.19199         0.18568
C         41.52586        26.51978        -0.58257
C         42.76680        28.68879        -0.03699
C         41.47359        29.41670        -0.39944
C         42.79311        31.58331        -0.22865
C         41.46277        30.87779         0.01818
C         42.87799        33.06449         0.20060
C         41.55046        33.79168         0.07847
C         42.73107        35.94091        -0.30813
C         41.51765        35.14453         0.01381
C         42.76122        37.42955        -0.08995
C         41.61564        38.04577         0.66871
C         42.88872        40.36265         0.78268
C         41.59435        39.54902         0.82035
C         42.75833        41.78355         0.29648
C         41.56401        42.41631         0.15765
C         42.68566        44.57647        -0.15281
C         41.51820        43.88583         0.04326
C         42.73358        46.07581         0.04166
C         41.39334        46.68973        -0.39915
C         42.55848        48.74700        -1.09172
C         41.36681        48.28758        -0.27013
C         43.81020        25.10439        -0.09986
C         45.20968        27.21066         0.21328
C         44.03619        26.48893         0.04960
C         45.21071        28.64383         0.22958
C         43.98194        29.35048         0.06188
C         45.32590        31.52515        -0.10539
C         44.02221        30.84794         0.34450
C         45.35034        32.90618        -0.76960
C         44.03009        33.71135        -0.57730
C         45.30382        35.97550        -0.59169
C         44.00412        35.20564        -0.62303
C         45.26297        37.31387         0.17631
C         44.07885        38.19854        -0.32211
C         45.24139        40.34557         0.04836
C         44.07674        39.63412         0.18767
C         45.30372        41.78721         0.07145
C         44.04880        42.58427         0.39119
C         45.24657        44.61556        -0.41844
C         43.95290        43.81586        -0.50242
C         45.14925        46.05343        -0.71221
C         43.95107        46.71020        -0.68581
C         43.58716        48.04353        -1.01638
C         47.65301        27.25066         0.47217
C         46.55040        26.70186         0.31811
C         47.79232        28.68868        -0.02719
C         46.49626        29.41436         0.52076
C         47.80354        31.51273        -0.43407
C         46.49186        30.85218         0.01200
C         47.80340        33.03252        -0.20744
C         46.62416        33.70899        -0.44234
C         47.86713        35.94406        -0.34378
C         46.58843        35.19486        -0.58112
C         47.85244        37.40043        -0.10318
C         46.56892        38.10431         0.12788
C         47.73543        40.31876        -0.44149
C         46.52163        39.59464         0.02111
C         47.74364        41.78857        -0.41815
C         46.48001        42.48649        -0.18849
C         47.83812        44.64258        -0.23872
C         46.44506        43.94841        -0.28115
C         47.57670        46.06615        -0.65377
C         46.47962        46.54999        -0.95286
C         50.01562        29.07080         1.28181
C         48.99099        29.44301         0.45962
C         50.22803        31.57366         0.24905
C         49.04822        30.84327         0.12713
C         50.24851        33.01556         0.33475
C         49.07078        33.70898         0.09190
C         50.25305        35.97371         0.54059
C         49.12385        35.18944        -0.04564
C         50.29802        37.44131         0.24001
C         49.03885        38.10335        -0.02885
C         50.25969        40.36551        -0.20419
C         49.05652        39.55691        -0.34786
C         50.21487        41.71480        -0.61040
C         48.94120        42.42269        -0.73077
C         50.20624        44.43499        -1.17188
C         48.80151        43.90810        -1.18355
C         50.89166        29.45194         2.17691
C         52.10024        31.75574         2.29166
C         51.63837        30.53276         1.70461
C         52.04749        32.93908         1.94484
C         51.59517        33.69537         0.70572
C         52.64449        36.10766         0.81856
C         51.51083        35.18693         0.91999
C         52.55948        37.35033         0.77528
C         51.47070        38.18609         0.35303
C         52.67525        40.38805        -0.27090
C         51.49777        39.69311         0.41211
C         52.59490        41.61007        -0.54211
C         51.48881        42.44716        -0.78091
C         51.28030        43.81802        -1.05797
O         39.40801        27.13352        -1.75631
O         46.01516        35.79909        -1.82870
O         46.70788        38.94440         1.34657
O         31.37418        38.88594        -1.46026
O         41.80770        25.85987        -1.84980
O         34.40338        38.41096        -1.76671
O         41.80985        38.63289         1.98422
O         51.46245        30.86782         0.28607
O         35.12357        32.59166         1.81056
O         43.71779        34.39197        -1.81927
O         36.72028        38.44583        -1.35854
O         39.97515        33.42603         1.87204
O         35.90855        41.68764         2.34005
O         42.34767        36.89830        -1.37394
O         48.35648        39.78131        -1.63741
O         50.56162        35.60046         1.92292
O         38.19886        29.20414        -1.39030
O         48.84251        35.60926        -1.41393
O         31.77211        35.74809        -2.70948
O         34.68282        43.75540         2.85228
O         51.53597        40.03791         1.79714
H         52.22929        39.49999         2.23577
O         39.98698        36.22836        -1.43532
H         39.12049        36.68153        -1.52195
O         47.72990        28.69732        -1.42827
H         48.62760        28.63415        -1.81168
O         44.29843        38.35988        -1.73698
H         43.67799        37.75305        -2.21343
O         41.40571        29.37052        -1.84249
H         42.10385        29.97643        -2.19244
O         33.28831        30.98538         2.02061
H         33.72567        31.75240         2.47037
O         39.29578        47.31881         2.01512
H         38.47898        47.73028         2.36905
O         41.26797        46.39759        -1.80276
H         40.48658        46.88198        -2.14869
O         31.26260        42.92031        -0.97848
H         30.98159        42.15663        -1.52335
O         46.59839        29.48626         1.96830
H         46.70968        28.57003         2.30669
O         34.59104        34.89849        -2.22254
H         34.51336        35.75459        -2.71544
O         48.24810        43.93930        -2.48140
H         48.83903        43.46887        -3.10434
O         34.25328        42.95756        -0.60822
H         33.85373        42.32179        -1.25704
O         43.28657        40.57316         2.18850
H         43.07916        39.74014         2.67532
O         36.70831        39.12832         2.21379
H         36.61206        39.98559         2.70163
O         33.10726        31.03231        -1.57606
H         32.76554        31.63435        -2.28465
O         40.29792        36.69818         2.16109
H         40.48777        37.44425         2.77267
O         32.31765        33.34448        -2.80771
H         32.20553        34.18469        -3.34114
O         40.27589        28.54715         1.52969
H         39.48707        28.02248         1.82724
O         42.39948        26.99908         1.60810
H         41.71330        27.66335         1.88308
O         42.97353        31.55490        -1.67268
H         42.46366        32.28887        -2.07838
O         30.77196        31.32550         1.45678
H         31.41926        30.91880         2.08091
O         43.26391        33.22784         1.57892
H         42.57421        32.83129         2.15291
O         41.57218        48.67113         1.06335
H         41.54445        49.64750         1.13326
O         43.97460        30.88923         1.78985
H         44.80197        30.46869         2.12646
O         45.46382        32.62237        -2.19151
H         45.17164        33.43775        -2.66701
O         32.61264        41.13364         2.12667
H         32.63102        41.89908         2.73980
O         42.93518        46.30099         1.44444
H         42.63819        47.21597         1.66168
O         45.02089        36.93128         1.54204
H         45.40848        37.63641         2.11290
O         52.53410        33.43769        -0.31814
H         52.58860        32.46247        -0.44232
O         33.04977        40.77580        -1.44564
H         33.30602        39.98214        -1.98332
O         40.04621        41.48730        -1.37330
H         39.18556        41.03524        -1.50787
O         37.51353        32.96992         2.38500
H         38.40279        32.97709         2.80870
O         33.94452        37.43462        -2.70426
H         32.94380        37.43529        -2.67963
O         44.18609        43.06140         1.74795
H         44.01798        42.29223         2.34283
O         43.82505        43.35127        -1.86641
H         43.60762        44.11420        -2.44190
O         48.36947        44.55119         1.06634
H         47.78031        45.02637         1.68764
O         37.96314        27.00570         1.52950
H         37.11530        27.06637         2.01975
O         35.24625        37.25623         1.75789
H         35.12556        38.16943         2.09974
O         47.90355        31.35631        -1.87367
H         47.08395        31.75127        -2.27079
