         732
 CSIRO Nanostructure Databank - Neutral Graphene Oxide Data Set
C         23.36932        24.31999        -0.66063
C         22.23847        24.96445        -1.15034
C         23.28184        27.14175        -0.78304
C         22.19236        26.35516        -1.21856
C         23.23133        28.59211        -0.86300
C         22.10414        29.27157        -1.37462
C         23.13451        31.43875        -0.95228
C         22.05585        30.65659        -1.41412
C         23.01183        32.92087        -0.88529
C         21.99571        33.66753        -1.64007
C         23.14642        35.83187        -1.31065
C         22.02225        35.02628        -1.73547
C         23.12632        37.26189        -1.37136
C         21.95067        38.01800        -1.74617
C         23.00557        40.12221        -0.91944
C         21.90961        39.36833        -1.63122
C         23.07063        41.60815        -1.20755
C         21.89670        42.32669        -1.40588
C         23.08337        44.45650        -1.29519
C         21.90321        43.72633        -1.46243
C         23.06743        45.91541        -1.22329
C         21.86808        46.63606        -1.33619
C         23.02845        48.72496        -0.97963
C         21.85250        48.02857        -1.22031
C         25.77186        22.96242         0.30127
C         25.65836        24.39470         0.29441
C         24.49204        25.05870        -0.21712
C         25.56092        27.27351         0.19320
C         24.44041        26.49212        -0.26435
C         25.48702        28.68454         0.11841
C         24.34594        29.36122        -0.41548
C         25.50138        31.57141        -0.17181
C         24.29596        30.79814        -0.46739
C         25.53340        33.00311        -0.33239
C         24.27581        33.72693        -0.53231
C         25.54901        35.83200        -0.70359
C         24.32111        35.15103        -0.88139
C         25.59179        37.26766        -1.05924
C         24.32209        38.01315        -1.12874
C         25.54698        40.16115        -0.88119
C         24.33118        39.41103        -1.05242
C         25.52755        41.60306        -0.87243
C         24.30311        42.31427        -1.08524
C         25.54385        44.46317        -0.97948
C         24.31665        43.74779        -1.12952
C         25.54014        45.91632        -0.93967
C         24.28467        46.62421        -1.00201
C         25.49818        48.75715        -0.63089
C         24.26035        48.04158        -0.86722
C         25.51122        50.14223        -0.36153
C         27.80451        23.06763         1.74630
C         26.77224        22.31772         0.95682
C         27.88911        24.50839         1.31106
C         26.78068        25.15990         0.76559
C         27.92707        27.33102         0.98313
C         26.74766        26.60864         0.67115
C         27.89215        28.80337         1.00440
C         26.61415        29.49977         0.59258
C         27.98981        31.60439         0.09477
C         26.66128        30.91758         0.21600
C         27.93621        33.10075         0.27613
C         26.71894        33.75015        -0.11391
C         27.83930        35.97549         0.34710
C         26.69615        35.17781        -0.23688
C         27.99701        37.35842        -0.19826
C         26.84588        38.04147        -0.79090
C         27.97943        40.20387        -0.40240
C         26.77696        39.49951        -0.69373
C         27.96131        41.62965        -0.42296
C         26.73908        42.32075        -0.68898
C         28.00121        44.44877        -0.62178
C         26.75670        43.75207        -0.76907
C         28.04964        45.89786        -1.02472
C         26.74077        46.62778        -0.82688
C         27.96236        48.77580        -0.52876
C         26.73750        48.05168        -0.67383
C         27.93778        50.15812        -0.24691
C         26.70342        50.82034        -0.14515
C         30.36092        20.27987         2.18879
C         29.19228        20.95591         1.96837
C         30.37443        23.07560         1.57814
C         29.14733        22.36194         1.73154
C         30.38613        24.52622         1.50758
C         29.09695        25.26335         1.78164
C         30.37750        27.40172         1.35954
C         29.13700        26.69192         1.32023
C         30.41106        28.82530         1.15982
C         29.17036        29.55147         0.96299
C         30.40053        31.68950         0.76221
C         29.14756        30.90517         0.75508
C         30.23397        33.11220         1.26538
C         29.10262        33.83671         0.57072
C         30.36774        35.97715         0.58764
C         29.14217        35.23970         0.48822
C         30.39196        37.35145         0.29706
C         29.17916        38.05574        -0.02262
C         30.37053        40.22877         0.18674
C         29.19425        39.50423        -0.14656
C         30.33272        41.64186         0.21038
C         29.16009        42.34585        -0.15832
C         30.42594        44.49935        -0.03697
C         29.17758        43.77856        -0.28674
C         30.42277        45.94946        -0.17025
C         29.25906        46.62292        -0.49676
C         30.43241        48.76392        -0.54163
C         29.23562        48.05954        -0.53363
C         30.31691        50.23962        -0.87213
C         29.25710        50.86952         0.02993
C         30.39147        53.06342        -0.40599
C         29.25209        52.36994        -0.12914
C         32.82683        18.86472         1.44497
C         32.88778        20.23715         1.79605
C         31.66991        21.00466         2.27381
C         32.84546        23.03195         1.32424
C         31.59212        22.36794         1.63709
C         32.84488        24.54047         1.23349
C         31.56703        25.24479         1.45597
C         32.86551        27.37338         1.34437
C         31.60602        26.68846         1.46416
C         32.87776        28.80015         1.20436
C         31.64187        29.49756         1.11317
C         32.91839        31.66111         1.33116
C         31.68073        30.95827         0.95107
C         32.86807        33.12772         1.53499
C         31.56692        33.87487         1.34047
C         32.83617        35.93765         0.70919
C         31.62110        35.28781         0.86615
C         32.91128        37.34872         0.41945
C         31.67211        38.06880        -0.03682
C         32.82254        40.21193         0.49431
C         31.64145        39.53736         0.32800
C         32.83226        41.64453         0.85232
C         31.50394        42.39699         0.67350
C         32.74057        44.58790         0.99431
C         31.54117        43.84720         0.44083
C         32.78639        46.03422         0.54581
C         31.65682        46.68224         0.09495
C         32.85102        48.84222        -0.12415
C         31.67078        48.11116        -0.23117
C         32.93012        50.22741        -0.60804
C         31.63887        50.97831        -0.88409
C         32.89114        53.12850        -0.74228
C         31.64819        52.42980        -0.70016
C         32.91911        54.55988        -0.70568
C         35.28085        18.67990         1.28563
C         33.94249        18.14846         1.07425
C         35.37534        20.20729         1.56594
C         34.10615        20.94070         1.64645
C         35.35310        23.05332         1.28200
C         34.13492        22.34391         1.50868
C         35.36027        24.46801         1.22643
C         34.12523        25.22097         1.66235
C         35.31008        27.34805         0.99287
C         34.10292        26.68137         1.30422
C         35.31929        28.79119         0.91181
C         34.11415        29.51015         1.09549
C         35.37496        31.67689         1.15348
C         34.11428        30.96506         1.21204
C         35.39079        33.07942         1.13240
C         34.18732        33.91135         1.51126
C         35.38532        35.96172         0.75828
C         34.11958        35.14376         0.59809
C         35.36834        37.35223         0.65687
C         34.10876        38.03500         0.45179
C         35.28374        40.19041         0.94641
C         34.13758        39.52541         0.17413
C         35.29538        41.69406         0.78551
C         34.11230        42.41766         0.81051
C         35.27725        44.60197         0.74403
C         34.07967        43.86302         0.79673
C         35.31812        46.02910         0.61690
C         34.03578        46.78872         0.95164
C         35.35999        48.95528         0.25824
C         34.04678        48.25632         0.50565
C         35.36825        50.31005        -0.33074
C         34.17123        51.02122        -0.46424
C         35.42340        53.19149        -0.88916
C         34.13252        52.41994        -0.69583
C         35.34969        54.63294        -0.46357
C         34.09852        55.26801        -0.51737
C         37.61056        16.03323        -0.14842
C         36.44773        16.71091         0.29261
C         37.73035        18.74615         0.73835
C         36.49394        18.02648         0.74629
C         37.78136        20.15465         0.85709
C         36.59401        20.91355         1.14325
C         37.78516        23.03774         0.73384
C         36.57933        22.31626         1.05426
C         37.76129        24.44783         0.64050
C         36.53874        25.18234         0.88607
C         37.64855        27.30688         0.08516
C         36.51010        26.60181         0.77178
C         37.74888        28.78099         0.41949
C         36.56582        29.48649         0.71573
C         37.77728        31.61824         0.72268
C         36.58369        30.92997         0.87237
C         37.83840        33.05586         1.00490
C         36.58899        33.81843         0.97232
C         37.85610        35.95689         0.72612
C         36.61021        35.23493         0.86117
C         37.85032        37.38661         0.61773
C         36.61487        38.10217         0.65464
C         37.83837        40.23675         0.60433
C         36.61318        39.51177         0.67123
C         37.85230        41.66939         0.68271
C         36.58435        42.37397         0.96144
C         37.83415        44.57926         0.61081
C         36.56919        43.89751         0.92002
C         37.80463        45.98787         0.46155
C         36.55051        46.71688         0.49346
C         37.82031        48.81978         0.22596
C         36.60510        48.15278         0.32499
C         37.89973        50.26313        -0.13029
C         36.64731        51.01923        -0.48175
C         37.80242        53.18057        -0.02107
C         36.65397        52.49071        -0.36789
C         37.79804        54.64032         0.03599
C         36.56913        55.34149        -0.18397
C         37.73062        57.45612         0.16854
C         36.57085        56.75745        -0.10481
C         40.03642        14.51284        -0.72856
C         40.07473        15.87171        -0.36979
C         38.86348        16.59364        -0.01497
C         40.21203        18.70444         0.24777
C         38.99916        17.93003         0.68561
C         40.21687        20.11499         0.29785
C         39.00724        20.87291         0.57967
C         40.20540        23.01501         0.18422
C         39.00073        22.28419         0.51530
C         40.17842        24.41155         0.09345
C         38.97145        25.18363         0.31030
C         40.15001        27.33314        -0.43273
C         38.96257        26.56786         0.14317
C         40.20299        28.80055        -0.05008
C         38.98901        29.45908         0.21863
C         40.27832        31.69069         0.06394
C         38.96342        30.93100         0.21278
C         40.34996        33.10478         0.43156
C         39.14052        33.81605         0.84899
C         40.31450        35.96234         0.49728
C         39.08246        35.26940         0.66410
C         40.31785        37.39197         0.45350
C         39.08365        38.10201         0.51463
C         40.31646        40.25953         0.43867
C         39.07807        39.53379         0.49889
C         40.30848        41.69550         0.46070
C         39.05599        42.39710         0.59248
C         40.29546        44.55162         0.46923
C         39.05107        43.84746         0.57247
C         40.28504        45.97964         0.44458
C         39.04562        46.68729         0.40623
C         40.27109        48.82463         0.48638
C         39.05353        48.10986         0.36359
C         40.22039        50.28534         0.70972
C         39.04284        51.05309         0.33506
C         40.24118        53.20423         0.52484
C         39.03465        52.46173         0.31280
C         40.24795        54.65689         0.54999
C         38.98247        55.36570         0.35042
C         40.14984        57.56807         0.77480
C         38.94370        56.78322         0.41388
C         40.25597        58.99288         0.43869
C         42.42768        14.49640        -1.09246
C         41.20586        13.83370        -1.07590
C         42.51562        15.86431        -0.74892
C         41.33064        16.55319        -0.36270
C         42.62590        18.65085        -0.19787
C         41.37791        17.97082        -0.08635
C         42.62374        20.07167        -0.16313
C         41.43575        20.80710         0.01388
C         42.62637        22.93072        -0.25935
C         41.43767        22.26267        -0.04313
C         42.65630        24.38271        -0.40852
C         41.38299        25.15435        -0.31996
C         42.64875        27.29803        -0.15566
C         41.45779        26.63369        -0.18984
C         42.70599        28.76796        -0.21818
C         41.45703        29.50012        -0.12228
C         42.74939        31.63089        -0.01653
C         41.52544        30.91732        -0.00534
C         42.79250        33.06639         0.13838
C         41.55531        33.80048         0.37971
C         42.78190        35.96388         0.59273
C         41.53196        35.22526         0.49598
C         42.77366        37.41519         0.42862
C         41.56526        38.11088         0.39010
C         42.78750        40.27266         0.27771
C         41.54951        39.55908         0.37474
C         42.77659        41.70146         0.25486
C         41.53632        42.40972         0.37926
C         42.77246        44.57140         0.39442
C         41.53946        43.84764         0.41276
C         42.74363        45.98509         0.44971
C         41.51587        46.70465         0.44978
C         42.74232        48.89436         0.40991
C         41.50078        48.14269         0.51715
C         42.73413        50.30886         0.28163
C         41.55236        51.06352         0.62655
C         42.70553        53.22724         0.48927
C         41.49887        52.53045         0.49616
C         42.74623        54.63199         1.00622
C         41.44062        55.34466         0.73749
C         42.73895        57.53965         0.73230
C         41.47413        56.80342         0.93533
C         42.69204        58.91257         0.64305
C         41.45954        59.62696         0.49103
C         44.99188        15.92356        -1.20252
C         43.79385        16.56646        -0.77151
C         45.18692        18.58295        -0.18556
C         43.83935        17.93485        -0.44179
C         45.18392        20.08403        -0.33159
C         43.88742        20.74050        -0.51966
C         45.16712        22.93692        -0.46244
C         43.88282        22.23436        -0.57272
C         45.11994        24.37628        -0.48005
C         43.93495        25.08119        -0.29985
C         45.08038        27.23798        -0.58972
C         43.94866        26.53544         0.10710
C         45.23083        28.71409        -0.29947
C         43.91561        29.46785        -0.32564
C         45.19313        31.62717        -0.30636
C         43.97434        30.90957        -0.22573
C         45.23698        33.05589        -0.20092
C         44.00775        33.75647         0.05110
C         45.26115        35.98339        -0.08660
C         44.08318        35.19951         0.34866
C         45.27071        37.36628         0.00473
C         44.09223        38.12188         0.59695
C         45.21358        40.24879        -0.10682
C         44.02264        39.56742         0.18235
C         45.20297        41.67493        -0.07384
C         44.01958        42.40303         0.16671
C         45.24922        44.54766         0.20961
C         44.04447        43.85815         0.28258
C         45.31897        46.01266         0.32463
C         43.99377        46.76041         0.49547
C         45.15135        48.89627        -0.22045
C         43.94685        48.19697         0.23673
C         45.22770        50.36145        -0.08279
C         43.93261        51.04328        -0.11894
C         45.22952        53.24486         0.25891
C         43.93158        52.57625         0.06146
C         45.22117        54.66642         0.42135
C         43.99553        55.38638         0.59468
C         45.23159        57.46648         0.40247
C         43.99152        56.78737         0.58063
C         46.19798        16.61410        -1.34518
C         47.58278        18.66281        -0.94028
C         46.33668        17.94541        -0.94147
C         47.59528        19.97651        -0.37714
C         46.37440        20.78993        -0.29872
C         47.59779        23.10422        -0.42293
C         46.38622        22.27158        -0.37058
C         47.57986        24.49139        -0.86779
C         46.30540        25.09451        -0.86610
C         47.89329        27.49302        -1.41943
C         46.01476        26.46729        -1.21828
C         47.75572        28.73904        -0.87821
C         46.43208        29.44443        -0.91811
C         47.72174        31.58874        -0.26210
C         46.44564        30.91694        -0.67510
C         47.73354        33.07348        -0.17241
C         46.45180        33.79542        -0.29277
C         47.68870        35.92154        -0.45352
C         46.48276        35.23018        -0.33620
C         47.65923        37.36830        -0.88190
C         46.45795        38.11732        -0.33208
C         47.64609        40.22165        -0.86904
C         46.44615        39.49943        -0.36438
C         47.66548        41.72938        -0.75203
C         46.50713        42.35990        -0.06657
C         47.76703        44.57389        -0.29900
C         46.54501        43.85738         0.09904
C         47.73976        46.00688        -0.34280
C         46.51236        46.71284        -0.15156
C         47.68047        48.95579        -0.55669
C         46.42602        48.13642        -0.49514
C         47.68217        50.35922        -0.08591
C         46.43041        51.06034         0.01448
C         47.67126        53.21317         0.30869
C         46.43128        52.51745         0.19695
C         47.69648        54.61672         0.31891
C         46.46419        55.36509         0.34117
C         46.42620        56.78466         0.32362
C         50.03042        18.81893        -1.22721
C         48.83179        18.12141        -1.36001
C         50.08179        20.04778        -0.51969
C         48.84613        20.48415        -0.01196
C         50.10178        23.13297        -0.37768
C         48.82926        22.61227        -0.00362
C         50.12360        24.50108        -0.73823
C         48.87399        25.20699        -0.96584
C         50.24282        27.30655        -0.96231
C         48.99327        26.60480        -1.12758
C         50.23880        28.70044        -0.88517
C         49.01261        29.40054        -0.51336
C         50.29344        31.62785        -0.62488
C         49.04525        30.87665        -0.31773
C         50.22745        33.09416        -0.55269
C         49.03058        33.76181        -0.35153
C         50.25849        35.99826        -0.45328
C         48.97374        35.22960        -0.26606
C         50.20005        37.44221        -0.78094
C         48.97869        38.11765        -0.76193
C         50.15878        40.26135        -1.03880
C         48.96504        39.53214        -0.92141
C         50.11089        41.74225        -1.40967
C         48.94043        42.45995        -0.77723
C         50.22619        44.57202        -0.74144
C         48.96499        43.84849        -0.59904
C         50.20362        46.05687        -0.94501
C         48.93514        46.72096        -0.52101
C         50.15004        48.81237         0.14180
C         48.95729        48.18537        -0.53635
C         50.14576        50.31602         0.04928
C         48.92237        51.00877         0.10326
C         50.22283        53.17321         0.28446
C         48.93713        52.43661         0.60283
C         50.16299        54.60875         0.24076
C         48.97961        55.28854         0.29504
C         52.53380        20.21928        -0.34593
C         51.29453        20.87683        -0.36024
C         52.55242        23.01951        -0.34758
C         51.29587        22.32041        -0.32822
C         52.57325        24.44281        -0.40124
C         51.40074        25.17358        -0.69225
C         52.68474        27.32990        -0.59408
C         51.46829        26.59650        -0.80142
C         52.70803        28.74870        -0.70688
C         51.47724        29.45883        -1.22878
C         52.74126        31.63685        -1.21968
C         51.43505        30.94386        -0.94040
C         52.70476        33.11937        -0.93928
C         51.45667        33.83930        -0.79800
C         52.62601        35.97847        -1.27603
C         51.45224        35.23003        -0.81327
C         52.67012        37.44759        -1.07013
C         51.42763        38.14996        -0.93424
C         52.66526        40.25923        -0.93849
C         51.41148        39.57344        -1.01471
C         52.72390        41.73422        -1.01701
C         51.44254        42.48004        -1.20209
C         52.70379        44.61991        -0.69326
C         51.43226        43.92119        -0.85596
C         52.72015        46.02915        -0.54710
C         51.47037        46.77565        -0.52578
C         52.66804        48.91051        -0.20434
C         51.43390        48.11948        -0.25403
C         52.59479        50.29957         0.27655
C         51.39598        51.00148         0.22513
C         52.72013        53.09265         0.05534
C         51.41516        52.46604         0.24185
C         53.75124        20.90705        -0.29970
C         55.07005        23.03776        -0.36125
C         53.79670        22.30434        -0.31789
C         55.09589        24.43730        -0.22034
C         53.81175        25.16709         0.08090
C         55.09180        27.32048        -0.16605
C         53.87647        26.62990        -0.27233
C         55.11414        28.75186        -0.24448
C         53.89254        29.46693        -0.48447
C         55.10838        31.59250        -0.44276
C         53.92395        30.90479        -0.60195
C         55.19827        32.99747        -1.00217
C         53.90417        33.78378        -0.98774
C         55.22931        35.95033        -1.38778
C         53.93323        35.19918        -1.38511
C         55.19824        37.47104        -1.16065
C         53.88078        38.14230        -1.00056
C         55.05880        40.26182        -0.27936
C         53.85642        39.55527        -0.79035
C         55.11330        41.74099        -0.30864
C         53.94084        42.45523        -0.56661
C         55.15262        44.56676        -0.23792
C         53.92468        43.88373        -0.51766
C         55.15719        45.99167        -0.18213
C         53.95986        46.70125        -0.31407
C         55.18491        48.86912         0.27572
C         53.98439        48.18353        -0.26613
C         55.11621        50.21803         0.68698
C         53.82189        51.00052         0.79666
C         53.86923        52.40544         0.23753
C         57.50330        23.04886        -0.53688
C         56.30286        22.36279        -0.54857
C         57.55210        24.45051        -0.34224
C         56.32460        25.15260        -0.19677
C         57.54901        27.29079         0.05917
C         56.34007        26.59513        -0.05871
C         57.56270        28.74500         0.10120
C         56.33438        29.45713        -0.10150
C         57.54596        31.58833         0.04716
C         56.34410        30.89242        -0.14565
C         57.50316        33.08227         0.30341
C         56.31062        33.81172        -0.33762
C         57.71156        35.94424        -0.80346
C         56.39413        35.25188        -0.74789
C         57.70239        37.47095        -0.72711
C         56.40260        38.12770        -0.64726
C         57.61736        40.25233         0.00842
C         56.35191        39.49409        -0.12970
C         57.58193        41.65081         0.14413
C         56.34910        42.41235        -0.03659
C         57.59782        44.53955         0.28717
C         56.36738        43.82630        -0.02119
C         57.63090        45.93992         0.33278
C         56.47331        46.74304        -0.21613
C         57.56598        48.79897         0.79214
C         56.39423        48.15159         0.34440
C         57.48512        50.14085         1.21229
C         56.28063        50.83181         1.16879
C         60.05179        24.51300        -0.39542
C         58.80925        25.17297        -0.25354
C         60.02964        27.26138         0.21516
C         58.80224        26.57100         0.02079
C         59.99197        28.69166         0.71934
C         58.76111        29.45272         0.27929
C         60.01549        31.58949         0.43939
C         58.77956        30.89122         0.26795
C         60.04710        33.09534         0.69368
C         58.84799        33.73868         0.00373
C         60.16349        35.94897        -0.14073
C         58.93746        35.18171        -0.41653
C         60.11665        37.37605        -0.02734
C         58.91174        38.12498        -0.19632
C         60.05137        40.21271         0.43259
C         58.85511        39.52206         0.08139
C         60.01322        41.63493         0.62670
C         58.80100        42.35937         0.43688
C         60.00222        44.46860         0.87673
C         58.79754        43.78616         0.55662
C         60.02046        45.90600         0.96878
C         58.81981        46.63423         0.71734
C         60.02678        48.71662         1.14682
C         58.82815        48.05949         0.86660
C         61.24185        25.20608        -0.24466
C         61.23203        26.56999         0.08643
C         61.25148        29.47834         0.50599
C         61.22997        30.84194         0.47290
C         61.31650        33.81701         0.30348
C         61.34554        35.15794         0.03996
C         61.28702        38.10413         0.35933
C         61.25663        39.46191         0.55739
C         61.19160        42.34696         0.98611
C         61.18505        43.71300         1.10727
C         61.21025        46.61477         1.27236
C         61.21664        47.99666         1.33238
O         49.73903        35.75473         0.90561
O         40.93162        50.67363         1.91586
O         47.32102        41.07022        -2.02303
O         23.23052        33.41701         0.46861
O         48.50324        48.78665        -1.79198
O         59.10511        34.04797        -1.37754
O         43.65746        35.51578         1.72730
O         26.52056        37.53839        -2.17554
O         31.22162        31.47595        -0.43194
O         53.45642        48.82069        -1.47971
O         57.92979        36.71997        -1.98936
O         26.96304        29.30477         2.03257
O         41.89524        24.76644        -1.65217
O         46.32781        30.35922        -2.04743
O         39.38337        31.48823        -1.10091
O         36.63856        43.17017         2.20196
O         47.62476        32.21237         1.05582
O         43.78650        21.43900        -1.82186
O         53.13408        35.50894        -2.56583
O         37.53110        50.49445        -1.54875
O         55.47130        32.73846        -2.36741
O         55.43502        39.69416         1.03876
O         49.15126        29.99339         0.85522
O         32.43555        50.44765        -1.99408
O         48.84632        21.54557         0.89807
O         46.83297        42.92436         1.23648
O         46.84301        27.01927        -2.19342
O         55.89108        34.86573         0.59884
O         43.78154        51.94821        -1.26710
O         34.63407        49.07882         1.58356
O         44.86258        46.47586         1.66360
O         35.53815        19.21987         2.62235
O         40.68979        57.24203         2.09817
O         38.68092        33.36252         2.19261
O         52.32090        42.23109        -2.36344
O         32.10286        33.62829         2.70318
O         32.87211        23.77732         0.01690
O         45.49635        48.41509        -1.60686
O         31.99168        41.96832         1.99157
O         55.42710        36.81968        -2.49422
O         34.98251        39.94369         2.35094
H         35.54511        40.53402         2.89590
O         27.39077        36.19484         1.76244
H         27.52211        35.34599         2.24002
O         34.12033        34.63231        -0.76966
H         34.01978        35.39326        -1.38003
O         48.93903        52.29727         2.07799
H         48.83784        53.19779         2.45451
O         27.36870        23.08686         3.15847
H         27.92343        23.78255         3.59432
O         42.85756        54.53851         2.47716
H         42.00008        54.20555         2.81918
O         53.01602        31.56588        -2.66414
H         53.93439        31.98054        -2.78419
O         28.33123        31.42839        -1.35227
H         29.30291        31.56872        -1.44274
O         31.91176        21.24281         3.71761
H         31.13574        21.72869         4.07059
O         50.18427        46.20660        -2.41998
H         49.89733        47.12484        -2.62571
O         59.93193        33.26015         2.13803
H         58.98585        33.08385         2.37541
O         35.61585        53.23227        -2.36300
H         36.52445        53.56034        -2.53384
O         34.48204        34.36994         2.84691
H         33.62773        34.42654         3.33579
O         34.09358        25.15767         3.13182
H         34.88926        25.62058         3.46930
O         29.71046        32.96051         2.61671
H         30.47299        33.05286         3.23714
O         31.77627        38.04556        -1.52261
H         30.90834        38.33797        -1.87834
O         34.01747        46.80199         2.41662
H         34.44388        47.65303         2.68856
O         37.27084        27.30629        -1.36600
H         37.05594        26.37841        -1.60614
O         49.94195        48.49864         1.56331
H         50.54602        49.06075         2.09352
O         51.56157        29.34436        -2.69661
H         52.19600        30.05193        -2.99796
O         44.33697        38.15832         2.05013
H         44.24922        37.22413         2.36497
O         53.68361        25.14802         1.55712
H         53.68517        24.20758         1.83731
O         53.61510        51.15277         2.24969
H         52.83894        51.74028         2.37440
O         45.47017        18.31073         1.24229
H         45.49983        17.33617         1.35146
O         44.12745        26.52714         1.55977
H         44.67183        27.32236         1.78626
O         59.87386        28.56099         2.19008
H         59.82350        29.46911         2.55855
O         57.30407        33.16035         1.75070
H         56.73132        33.94668         1.92494
O         34.36969        39.70525        -1.24728
H         33.65104        39.22061        -1.71584
O         29.63705        50.58722         1.40635
H         28.93167        50.92714         1.99524
O         28.99139        25.32517         3.28298
H         28.39166        26.07438         3.49358
O         47.42500        37.30015        -2.34005
H         47.38774        38.22164        -2.67900
O         22.66028        40.04888         0.51690
H         22.61027        39.09909         0.75797
O         49.84205        41.76245        -2.83995
H         50.71876        41.78455        -3.29092
O         45.62272        28.71491         1.13959
H         45.65934        29.64637         1.45071
O         39.95122        27.32764        -1.88299
H         39.01078        27.59080        -2.04357
O         28.25381        45.88085        -2.49295
H         27.46324        45.45667        -2.89019
O         56.77490        46.90582        -1.64759
H         56.03159        47.40418        -2.05112
O         32.51395        44.60605         2.43593
H         33.13910        45.26714         2.82146
O         39.27607        17.57931         2.10185
H         38.44750        17.20760         2.47431
O         29.79755        50.34347        -2.22157
H         30.54397        50.14061        -2.82859
H         23.37351        23.22347        -0.61756
H         21.37634        24.37326        -1.48841
H         21.28712        26.83018        -1.61762
H         21.23134        28.71176        -1.73431
H         21.14805        31.14523        -1.79288
H         21.18460        33.11438        -2.13498
H         21.19344        35.52469        -2.25804
H         21.08396        37.48788        -2.16635
H         20.99777        39.90120        -1.93601
H         20.93140        41.80800        -1.47840
H         20.94243        44.23941        -1.59732
H         20.91811        46.11704        -1.51694
H         22.98878        49.81847        -0.89361
H         20.90252        48.57224        -1.31567
H         25.02055        22.36012        -0.22846
H         24.57066        50.70442        -0.29632
H         26.80030        21.21902         0.93948
H         26.66625        51.89288         0.09062
H         30.31988        19.22494         2.49509
H         28.24485        20.40284         2.04335
H         30.34836        54.16216        -0.38409
H         28.34424        52.93660         0.12638
H         31.84382        18.37954         1.36591
H         31.97797        55.12164        -0.76451
H         33.81734        17.16129         0.60840
H         34.02285        56.35489        -0.37374
H         37.48518        15.03072        -0.57987
H         35.49046        16.17427         0.25750
H         37.68759        58.55166         0.22493
H         35.64588        57.32210        -0.27603
H         39.08631        13.96255        -0.72751
H         39.35921        59.55502         0.14404
H         43.32612        13.93529        -1.37994
H         41.15844        12.76878        -1.34216
H         43.61729        59.49696         0.55095
H         41.51353        60.70700         0.29331
H         44.96713        14.86942        -1.50714
H         45.25564        58.56366         0.37286
H         47.05784        16.08314        -1.77938
H         47.35583        57.36250         0.23680
H         50.94877        18.39072        -1.65374
H         48.85067        17.13361        -1.84177
H         51.09805        55.18085         0.15997
H         49.00671        56.38597         0.27471
H         52.55359        19.12049        -0.36147
H         52.76218        54.14273        -0.26863
H         54.67866        20.31983        -0.27019
H         54.84167        52.89400         0.07715
H         58.43149        22.47766        -0.67032
H         56.31922        21.27510        -0.69907
H         58.37343        50.65619         1.60011
H         56.23655        51.86798         1.53168
H         60.08806        23.43962        -0.62330
H         60.05787        49.81090         1.22891
H         62.20080        24.68137        -0.35568
H         62.19305        27.07518         0.24925
H         62.22293        28.96871         0.56638
H         62.18797        31.38038         0.46680
H         62.27691        33.29715         0.42675
H         62.32763        35.64624        -0.05204
H         62.23603        37.56798         0.49098
H         62.19245        39.96737         0.82806
H         62.12995        41.80788         1.16625
H         62.12006        44.21814         1.37938
H         62.14956        46.07696         1.45200
H         62.15002        48.53414         1.54877
