         234
 CSIRO Nanostructure Databank - Neutral Graphene Oxide Data Set
C          1.16316         2.35516        -1.43603
C          1.13282         3.68246        -0.98274
C          2.36712         1.68127        -1.59189
C          2.31782         4.34772        -0.63349
C          1.07838         6.33616         0.40516
C          1.07467         7.50292         1.06262
C          2.31669         5.83301        -0.28051
C          2.30049         8.25381         1.43642
C          1.13982        10.50560         1.01372
C          1.22984        11.77315         0.55739
C          2.30632         9.77544         1.52935
C          2.43918        12.57117         0.65811
C          1.41564        14.40756        -0.67186
C          1.46481        15.62742        -1.25392
C          2.44356        13.88871         0.20697
C          2.47178        16.69782        -0.91494
C          2.91415        17.47251        -2.12736
C          3.58933         2.32532        -1.27946
C          3.53760         3.65631        -0.77530
C          4.84649         1.67192        -1.51913
C          4.79550         4.31218        -0.38810
C          3.59760         6.32469         0.38675
C          3.61932         7.55239         1.24378
C          4.76428         5.73266         0.01653
C          4.93704         8.26902         1.50131
C          3.61092        10.53822         1.66915
C          3.63938        11.97448         1.24021
C          4.92589         9.77305         1.82876
C          4.79733        12.71743         1.36527
C          3.55349        14.79907         0.57953
C          3.63945        16.16143        -0.07681
C          4.78254        14.19130         1.20217
C          4.98632        16.77171        -0.22512
C          4.11715        18.07644        -2.18297
C          5.16071        17.84631        -1.19907
C          6.07702         2.30185        -1.32558
C          6.09937         3.65390        -0.72075
C          7.32806         1.67466        -1.51877
C          7.34060         4.45013        -0.83587
C          6.02304         6.50557        -0.05718
C          6.13920         7.69663         0.79745
C          7.27733         5.91789        -0.64707
C          7.42442         8.03115         1.18645
C          6.16661        10.60617         1.69524
C          6.06399        12.07697         1.76205
C          7.42422        10.08501         1.87970
C          7.39701        12.87056         1.68347
C          6.07594        15.00421         1.20231
C          6.08022        16.29284         0.45849
C          7.38311        14.29661         1.29592
C          7.28233        17.20133         0.64054
C          6.36754        18.50615        -1.31747
C          7.48265        18.20008        -0.48082
C          8.54845         2.35252        -1.27482
C          8.53447         3.79843        -1.02626
C          9.76544         1.65563        -1.25475
C          9.79367         4.52757        -0.94258
C          8.59360         6.71617        -0.61962
C          8.63222         7.75187         0.49513
C          9.84177         5.86542        -0.61830
C          9.80319         8.54043         0.63665
C          8.65520        10.71613         1.47282
C          8.64903        12.12431         1.42896
C          9.80596         9.93772         1.06914
C          9.84872        12.85013         1.17864
C          8.58541        14.97042         1.11632
C          8.57543        16.45681         1.00501
C          9.84826        14.28024         1.13107
C          9.87746        17.16032         0.78670
C          8.68464        18.86184        -0.62145
C          9.89364        18.43251         0.02169
C         11.02727         2.31359        -1.15079
C         11.03221         3.79565        -1.27569
C         12.19192         1.62049        -0.89338
C         12.34029         4.55194        -1.18054
C         11.09187         6.57614        -0.39283
C         11.04856         7.93845         0.16035
C         12.30125         5.92309        -0.62931
C         12.24794         8.61222         0.40006
C         11.01329        10.69357         0.92341
C         11.04682        12.10220         1.01739
C         12.25890         9.98346         0.80469
C         12.32230        12.82124         0.85497
C         11.11511        14.98177         1.09218
C         11.14974        16.40979         0.87465
C         12.32276        14.26868         1.07777
C         12.33803        17.10383         0.72118
C         11.10376        19.04522        -0.22271
C         12.35021        18.45582         0.18797
C         13.52247         2.24684        -0.92600
C         13.62388         3.75134        -1.13592
C         14.68833         1.52658        -0.41378
C         14.95762         4.46582        -0.87204
C         13.59700         6.60281        -0.45070
C         13.56035         8.01478         0.07409
C         14.84713         5.84168        -0.24753
C         14.74096         8.51597         0.80661
C         13.47183        10.59760         1.17242
C         13.65008        12.05625         1.02968
C         14.55815         9.71623         1.46608
C         14.92194        12.83248         1.27529
C         13.61007        14.94746         1.27460
C         13.60052        16.47221         1.13053
C         14.90023        14.20967         1.20155
C         14.89280        17.21649         0.92988
C         13.55245        19.11007        -0.04524
C         14.82760        18.52667         0.22817
C         15.90779         2.17750        -0.14320
C         15.99172         3.60709        -0.17977
C         17.07801         1.43698         0.20745
C         17.18327         4.25722         0.19989
C         16.00190         6.46257         0.19223
C         16.02725         7.86132         0.65444
C         17.23399         5.68767         0.26506
C         17.25361         8.53616         0.74315
C         16.41454        10.80960         1.50565
C         16.22482        12.15135         1.21481
C         17.43200         9.97005         0.92163
C         17.35833        12.86163         0.65827
C         16.24270        14.96605         1.31889
C         16.20339        16.49165         1.04352
C         17.32440        14.22239         0.53773
C         17.51666        17.23110         0.67253
C         15.98958        19.14814        -0.17598
C         17.29455        18.55553        -0.06977
C         18.31488         2.07357         0.40402
C         18.37653         3.50563         0.41750
C         19.53413         1.34157         0.56769
C         19.62137         4.17830         0.55798
C         18.46793         6.33887         0.43326
C         18.45018         7.81477         0.14003
C         19.66261         5.60732         0.56839
C         19.76091         8.52417         0.30155
C         18.55894        10.62216         0.41473
C         18.68115        12.12473         0.53911
C         19.76431         9.89739         0.11263
C         19.56879        12.65623        -0.58823
C         18.41999        14.91169        -0.18349
C         18.48340        16.40343        -0.15839
C         19.64801        14.16991        -0.56412
C         19.78385        17.06271        -0.49416
C         18.35112        19.17226        -0.68772
C         19.69455        18.57372        -0.78812
C         20.74814         1.99551         0.64279
C         20.82723         3.41214         0.61470
C         22.09369         4.09300         0.59836
C         20.96849         6.28327         0.74091
C         21.02240         7.81086         0.54726
C         22.17669         5.45215         0.62787
C         22.25111         8.53441         0.17308
C         20.98958        10.61310        -0.21929
C         20.92125        11.95807        -0.57784
C         22.21459         9.83687        -0.21239
C         22.04710        12.69982        -1.06195
C         20.77537        14.81569        -1.03664
C         20.83499        16.27596        -1.15695
C         21.96303        14.03609        -1.33512
C         21.82661        16.94794        -1.84044
C         20.68204        19.11321        -1.72025
C         21.73636        18.34815        -2.12866
O         11.66405         4.37425        -2.46644
O          5.22897        14.91853         2.39274
O          5.56878         3.58906         0.66551
O         15.65199        17.22838         2.19054
O         13.12479        12.42651        -0.31133
O         15.51575        10.17934         2.37395
O          9.22953        17.14617         2.12194
O          7.54803         8.78181         2.35631
O         13.54221        15.85132         2.44488
O         20.25268        18.03953         0.45807
O          4.36646         7.37287         2.49799
O         13.76401         2.88267        -2.28338
O          6.72307        12.61127         2.95788
O          4.18443        10.24188         2.98262
O         17.87011        15.76317        -1.31042
O          2.07840         8.93359         2.69851
O          6.31346         6.61792        -1.54195
O          3.17095        16.01443         1.30716
O         21.02951         7.20243         1.89973
O         13.77105         7.76406        -1.35406
O         15.53440         4.72315        -2.19342
H         15.22633         3.99127        -2.77905
O          6.90635        18.02140         1.78224
H          6.95911        17.46465         2.58812
O         16.64715        14.83691         2.71035
H         16.12521        15.50653         3.21051
O          1.75192        17.65992        -0.08997
H          1.80840        17.32060         0.83422
O         18.89519        12.29131        -1.82987
H         19.33490        12.76646        -2.56584
O         19.38712        12.40223         1.78022
H         18.75782        12.31471         2.52671
O          2.32650         6.53393        -1.57786
H          3.09674         6.20620        -2.09009
O         18.18128        17.50386         1.91542
H         17.50368        17.86436         2.53004
O          8.67752         7.47225        -1.86109
H          7.75842         7.53462        -2.21518
O         18.22106         7.86201        -1.32415
H         18.01377         8.79003        -1.56800
H          0.21927         1.85186        -1.68791
H          0.16365         4.19301        -0.90337
H          2.38076         0.64974        -1.97158
H          0.12979         5.80187         0.25431
H          0.13695         7.87093         1.50522
H          0.17364         9.98333         0.99236
H          0.31802        12.25483         0.18184
H          0.59288        13.73713        -0.95773
H          0.65577        15.92162        -1.93977
H          2.16531        17.65804        -2.91182
H          4.82866         0.64175        -1.90607
H          4.36508        18.73306        -3.03123
H          7.35941         0.61813        -1.82465
H          6.49589        19.25885        -2.11045
H          9.75159         0.55783        -1.32819
H          8.75577        19.69299        -1.34081
H         12.14326         0.53490        -0.71846
H         11.13333        19.98845        -0.78881
H         14.60934         0.44045        -0.26268
H         13.53404        20.10986        -0.50423
H         17.02457         0.33850         0.22709
H         15.91437        20.11371        -0.70059
H         19.49803         0.24273         0.58416
H         18.17752        20.11956        -1.22331
H         21.67954         1.41519         0.71600
H         23.01203         3.48800         0.57136
H         23.15846         5.94405         0.66978
H         23.21513         8.00950         0.23341
H         23.15822        10.33420        -0.47835
H         23.00688        12.18620        -1.21615
H         22.85674        14.55509        -1.70549
H         22.65295        16.39410        -2.30696
H         20.54314        20.13101        -2.11359
H         22.49472        18.78255        -2.79563
