         404
 CSIRO Nanostructure Databank - Neutral Graphene Oxide Data Set
C          3.63506         2.56478        -5.58892
C          3.65550         3.99199        -5.56284
C          4.70579         1.82788        -5.17550
C          4.73879         4.72340        -5.10087
C          3.39527         6.80937        -4.84482
C          3.25934         8.17152        -4.48720
C          4.60509         6.13518        -4.77329
C          4.28896         8.89266        -3.88880
C          2.90943        10.97614        -3.68077
C          2.73704        12.24190        -3.13356
C          4.12929        10.29587        -3.49089
C          3.81544        12.88736        -2.51772
C          3.02853        15.98555        -3.13074
C          3.39776        17.17518        -3.75357
C          4.00794        15.16498        -2.56497
C          4.73500        17.59411        -3.69105
C          5.09301        18.90016        -4.18029
C          5.98779         2.48727        -4.92464
C          6.02652         4.01435        -4.90897
C          7.03680         1.75276        -4.18387
C          7.22898         4.64351        -4.16879
C          5.76193         6.89066        -4.25784
C          5.53952         8.21879        -3.65040
C          7.01786         6.12051        -3.82822
C          6.53965         8.80590        -2.87590
C          5.19951        10.97377        -2.85387
C          5.11376        12.34054        -2.45918
C          6.30310        10.15641        -2.33287
C          6.30199        13.09845        -1.99810
C          5.39803        15.44193        -2.61300
C          5.72851        16.75919        -3.08169
C          6.44185        14.54139        -2.13340
C          7.02563        17.29896        -2.85308
C          6.32799        19.42190        -3.94671
C          7.31138        18.66601        -3.21443
C          7.85209         2.36432        -3.26478
C          7.61513         3.82813        -2.92166
C          8.87073         1.62186        -2.59110
C          8.79162         4.47493        -2.22327
C          7.82342         6.70644        -2.75335
C          7.68789         8.06941        -2.42130
C          8.79164         5.88612        -2.07886
C          8.67961         8.71022        -1.58446
C          7.39146        10.86109        -1.56509
C          7.42139        12.34259        -1.57560
C          8.62776        10.09525        -1.30872
C          8.62710        12.95978        -1.12972
C          7.71940        15.13711        -1.86468
C          7.99446        16.51980        -2.17193
C          8.76499        14.37232        -1.25611
C          9.25280        17.11763        -1.82844
C          8.49343        19.26464        -2.80202
C          9.48360        18.53365        -2.07973
C          9.80741         2.21816        -1.73973
C          9.77186         3.67448        -1.56963
C         10.86850         1.46684        -1.16766
C         10.77133         4.28198        -0.80926
C          9.80890         6.54547        -1.32589
C          9.79128         7.93785        -1.10844
C         10.92825         5.73365        -0.84627
C         10.81757         8.57985        -0.31471
C          9.69986        10.75613        -0.66250
C          9.70213        12.18575        -0.57836
C         10.78165         9.99596        -0.12119
C         10.82487        12.83701         0.01231
C          9.96597        15.00248        -0.81217
C         10.21077        16.36796        -1.12410
C         10.95193        14.25138        -0.09425
C         11.51104        16.95232        -0.77379
C         10.59433        19.20006        -1.56567
C         11.72335        18.48073        -0.99277
C         11.84424         2.04589        -0.32464
C         11.66984         3.47370         0.01988
C         12.95680         1.35723         0.17555
C         12.74858         4.15130         0.85802
C         12.00091         6.41064         0.00714
C         11.85440         7.84024         0.28876
C         12.88019         5.61269         0.85673
C         12.83386         8.46140         1.11354
C         11.80650        10.64059         0.62576
C         11.83916        12.07451         0.67684
C         12.82424         9.87818         1.26627
C         12.88684        12.73289         1.36835
C         12.06293        14.90396         0.52151
C         12.33082        16.30197         0.25503
C         12.95125        14.14710         1.31381
C         13.38959        16.99772         0.83174
C         12.71651        19.14120        -0.13873
C         13.57426        18.42139         0.65020
C         14.00528         1.99359         0.92343
C         13.90338         3.35432         1.27528
C         15.24054         1.29182         1.15426
C         14.94949         4.03981         2.03360
C         13.90478         6.25818         1.56329
C         13.89759         7.69290         1.67716
C         14.98411         5.50277         2.12272
C         14.95353         8.33855         2.37331
C         13.84304        10.50887         2.05712
C         13.86552        11.96504         2.13643
C         14.88099         9.75015         2.60989
C         14.87624        12.59760         2.83419
C         13.99947        14.85032         2.06367
C         14.24991        16.31359         1.81657
C         15.13067        14.02893         2.57289
C         15.55794        16.90037         2.18665
C         14.60242        19.11709         1.53283
C         15.89179        18.26636         1.64011
C         16.38900         1.92207         1.62684
C         16.30417         3.28720         2.18903
C         17.65782         1.28259         1.67939
C         17.49829         4.10944         2.34159
C         16.13649         6.16397         2.61046
C         16.10800         7.58123         2.74589
C         17.41000         5.45013         2.68195
C         17.34515         8.30069         3.05050
C         15.84502        10.33399         3.63022
C         15.83866        11.86425         3.69089
C         17.26719         9.80325         3.44481
C         17.04033        12.57333         4.27318
C         16.28195        14.75075         3.17983
C         16.41621        16.22008         3.01161
C         17.21188        14.02791         4.05412
C         17.54485        16.87303         3.64074
C         17.01102        18.92555         2.40991
C         17.80398        18.27769         3.30928
C         18.83063         1.98216         2.00224
C         18.82082         3.49873         1.95249
C         20.04841         1.31160         2.18784
C         19.99199         4.14770         2.64625
C         18.61994         6.18834         3.02769
C         18.55010         7.53020         3.36741
C         19.90096         5.50811         3.06492
C         19.69823         8.20009         4.00188
C         18.36628        10.42187         4.15196
C         18.25555        11.78074         4.80908
C         19.61860         9.68302         4.37535
C         19.56799        12.55047         4.66121
C         18.29547        14.69919         4.57365
C         18.32517        16.15505         4.53980
C         19.54066        13.95338         4.76922
C         19.43963        16.85794         5.19729
C         18.79399        19.04727         4.12309
C         19.41651        18.36371         5.28871
C         21.23986         1.99010         2.56124
C         21.19424         3.42541         2.78762
C         22.44337         1.29025         2.75899
C         22.36488         4.08709         3.25336
C         21.06676         6.23097         3.43546
C         21.02209         7.57198         3.86230
C         22.41466         5.59693         3.20979
C         22.20105         8.32920         4.14603
C         20.88221        10.43829         4.42740
C         20.81519        11.87355         4.50935
C         22.11944         9.76500         4.31330
C         22.02593        12.63273         4.41209
C         20.74726        14.69688         4.67735
C         20.74898        16.15764         4.94056
C         21.97123        14.04862         4.49217
C         21.81113        16.96226         4.30162
C         20.35197        19.04145         4.32913
C         21.53804        18.27802         3.82813
C         23.60160         1.93665         3.26025
C         23.51108         3.35070         3.55218
C         24.84673         1.28234         3.39637
C         24.60471         3.99700         4.22571
C         23.47909         6.21080         4.08803
C         23.47718         7.67018         4.21359
C         24.45071         5.39312         4.59942
C         24.67134         8.43740         4.20672
C         23.33387        10.53033         4.20495
C         23.28557        11.96047         4.19029
C         24.58003         9.86686         4.02903
C         24.45196        12.70185         3.88113
C         23.19075        14.88265         4.35344
C         23.00937        16.30909         3.95696
C         24.45809        14.17459         3.96113
C         24.02860        17.00524         3.28307
C         22.53686        18.94322         3.11515
C         23.79174        18.33832         2.84191
C         25.99400         1.97751         3.86667
C         25.76559         3.27581         4.44352
C         27.30569         1.46729         3.69700
C         27.69395         4.43986         4.39984
C         26.32185         6.55096         4.57771
C         25.99698         7.83890         4.10726
C         27.50978         5.86151         4.18999
C         27.03375         8.56182         3.44364
C         25.71665        10.62716         3.60430
C         25.64440        12.04656         3.48470
C         26.90926         9.96040         3.19503
C         26.77099        12.79602         2.98005
C         25.51962        14.91358         3.24623
C         25.35090        16.38445         3.04819
C         26.65925        14.24746         2.86060
C         26.28994        17.09950         2.07498
C         24.78149        19.05656         2.09223
C         25.94894        18.48239         1.59044
C         28.51788         2.21621         3.55140
C         28.62034         3.67400         3.69751
C         29.61074         1.53734         2.99001
C         29.72400         4.35774         3.05550
C         28.43328         6.52990         3.37175
C         28.21587         7.88484         3.03173
C         29.75999         5.88385         3.06874
C         29.10706         8.55882         2.14344
C         27.97022        10.68320         2.57939
C         27.90640        12.10542         2.51052
C         29.03229         9.94115         1.93811
C         29.08278        12.82102         1.95138
C         27.75707        15.01815         2.20759
C         27.34556        16.24510         1.48536
C         28.95083        14.28377         1.65863
C         28.04588        16.60096         0.37052
C         26.89087        19.30914         0.88990
C         27.86006        18.76781         0.01363
C         30.76293         2.19745         2.45482
C         30.78063         3.65502         2.50407
C         31.76937         1.47094         1.82275
C         31.86893         4.37759         1.80328
C         30.32214         6.39175         1.76043
C         29.96430         7.72262         1.29340
C         31.54537         5.76126         1.29781
C         30.82981         8.41624         0.23888
C         30.01445        10.58891         1.09977
C         30.13133        12.05391         1.18448
C         30.93289         9.88259         0.32544
C         30.96524        12.73363         0.16639
C         29.71003        14.84587         0.51801
C         29.34583        16.10065         0.00064
C         30.77779        14.12441        -0.08978
C         30.22249        16.86957        -0.83970
C         29.12374        19.17970        -0.39634
C         30.09881        18.30994        -1.03784
C         32.95891         2.09717         1.22177
C         32.97350         3.61425         1.13620
C         33.87748         1.38781         0.32786
C         33.75920         4.26517         0.06400
C         32.24364         6.24684         0.07719
C         31.93732         7.64403        -0.41376
C         33.50392         5.59847        -0.33037
C         32.99445         8.37631        -1.13158
C         31.93957        10.54201        -0.47006
C         31.89101        11.98812        -0.58520
C         32.87733         9.79640        -1.22152
C         32.79081        12.68249        -1.46308
C         31.59284        14.80118        -1.04141
C         31.38282        16.19186        -1.33080
C         32.66797        14.08719        -1.65117
C         32.35520        16.87682        -2.11740
C         31.10933        18.96007        -1.76405
C         32.21140        18.28181        -2.34455
C         34.86277         2.07709        -0.37896
C         34.77008         3.51767        -0.57894
C         35.96767         1.38814        -0.97364
C         35.62085         4.16810        -1.52107
C         34.31879         6.25338        -1.28780
C         34.09539         7.65094        -1.65651
C         35.40079         5.53085        -1.84936
C         35.08407         8.32045        -2.44782
C         33.72499        10.49527        -2.20484
C         33.78521        11.97165        -2.19710
C         34.86107         9.71561        -2.85477
C         34.73832        12.64292        -2.96640
C         33.62226        14.77819        -2.45564
C         33.49179        16.18744        -2.64042
C         34.71597        14.07673        -3.03927
C         34.50424        16.89884        -3.33833
C         33.18385        18.96513        -3.11375
C         34.32714        18.30812        -3.60552
C         36.95574         2.06943        -1.68230
C         36.77156         3.45803        -2.03059
C         38.17687         1.42090        -2.08331
C         37.76482         4.12282        -2.76463
C         36.25835         6.19667        -2.84009
C         36.21508         7.66546        -2.95579
C         37.52353         5.47159        -3.29721
C         37.24857         8.35663        -3.66778
C         35.95877        10.45159        -3.49646
C         35.74547        11.88302        -3.74974
C         37.11864         9.79052        -3.89973
C         36.92720        12.65494        -4.32707
C         35.78284        14.82591        -3.62766
C         35.69391        16.22266        -3.73290
C         37.02727        14.11063        -4.00756
C         36.81220        17.03759        -4.26612
C         35.28410        18.99163        -4.40264
C         36.48795        18.38118        -4.79660
C         39.18579         2.11823        -2.69068
C         39.01973         3.50262        -3.03445
C         40.05255         4.27203        -3.61160
C         38.65213         6.28230        -3.77452
C         38.43831         7.67662        -4.06370
C         39.88886         5.63006        -3.91166
C         39.46683         8.43092        -4.71890
C         38.20800        10.52486        -4.52872
C         38.16028        11.92413        -4.66995
C         39.36126         9.77661        -4.93708
C         39.21043        12.70244        -5.27738
C         38.22097        14.86048        -4.57175
C         38.10066        16.35352        -4.75202
C         39.18601        14.06378        -5.35160
C         38.83118        17.04347        -5.81877
C         37.41869        19.03018        -5.62378
C         38.53998        18.34654        -6.14990
O          6.46609         3.27438        -6.08306
O          6.26762        10.23090        -0.84690
O         38.17187        14.43548        -3.16296
O         29.04098        15.08852         2.89866
O         29.52787         7.89103        -0.12873
O         25.43006         5.92971         5.46521
O         12.27754        17.46729        -1.90112
O         32.48220         5.53861         2.47234
O         20.20166        16.33689         6.31657
O          6.98934         6.88656        -5.07471
O         16.37222        14.15234         1.77568
O         13.50038        15.84533         3.02100
O         15.34688         3.37995         3.27993
O         38.04382        17.05213        -3.47244
O         26.48167        17.16686         3.53959
O         19.43945         8.62275         5.39771
O         31.40002         6.46195        -1.09626
O         35.78914        12.29891        -5.16677
O         17.59895         9.39718         2.07432
O         15.82039        12.33697         5.09572
O          3.52905        14.07316        -1.83589
O         12.23765         6.12761        -1.43668
O         24.23061        14.66157         5.35325
O         11.45536         3.71054         1.46436
O         30.36531        12.50069         2.58210
O         36.32288         5.53569        -4.14721
O         33.76512         2.94758         2.16221
O         27.46731        17.51589        -0.50675
O         26.78221         3.80594         5.25196
O         33.57402         9.92931        -3.55234
O         22.78921         5.93421         1.81971
H         22.05890         5.63078         1.23918
O         14.04564        19.32448         2.83484
H         13.76028        18.45806         3.19501
O         16.34386        18.09278         0.26385
H         17.11661        17.48986         0.27145
O         18.06810        11.60304         6.23631
H         17.10140        11.52134         6.39815
O         30.62431         6.30656         4.17499
H         31.54589         6.03427         3.93232
O         15.39779         9.81856         4.91052
H         15.25108        10.58794         5.50871
O          8.37819         4.58960        -5.02614
H          8.18072         5.13621        -5.81690
O         18.98697         3.82525         0.51831
H         19.77123         3.33069         0.19751
O          6.46970         3.89673        -2.02495
H          6.69348         3.40819        -1.20505
O         19.23361        18.86381         6.59301
H         19.64866        18.21895         7.20647
H          2.68896         2.06600        -5.84301
H          2.71518         4.50479        -5.80676
H          4.62449         0.74122        -5.02829
H          2.49805         6.29638        -5.21615
H          2.28098         8.64005        -4.65564
H          2.06038        10.48587        -4.17372
H          1.75792        12.73690        -3.16032
H          1.97471        15.68768        -3.05932
H          2.64095        17.82276        -4.21753
H          4.32581        19.48737        -4.70552
H          7.15114         0.67456        -4.38045
H          6.58377        20.43803        -4.27912
H          8.95374         0.54516        -2.80606
H          8.67736        20.32404        -3.03325
H         10.93899         0.39468        -1.40634
H         10.62624        20.29950        -1.60235
H         13.08143         0.29497        -0.08393
H         12.74608        20.24141        -0.12442
H         15.31689         0.25348         0.79764
H         14.84921        20.12143         1.11093
H         17.71507         0.20044         1.48421
H         17.22453        19.97842         2.16799
H         20.06659         0.21309         2.11840
H         18.43975        20.07299         4.32399
H         22.47888         0.21209         2.54268
H         20.64144        20.06568         4.62338
H         24.95195         0.24566         3.04297
H         22.36070        19.97222         2.76891
H         27.36986         0.41603         3.36839
H         24.55013        20.09663         1.81626
H         29.54554         0.44473         2.86989
H         26.84205        20.39619         1.05827
H         31.66986         0.37757         1.74933
H         29.43749        20.21795        -0.20898
H         33.87239         0.28747         0.32095
H         31.04529        20.05108        -1.89368
H         36.08613         0.31196        -0.77774
H         33.05472        20.03975        -3.31111
H         38.30914         0.35667        -1.83902
H         35.08327        20.02983        -4.70721
H         40.13530         1.62166        -2.93800
H         41.03096         3.80190        -3.78642
H         40.76390         6.18329        -4.27963
H         40.37124         7.91332        -5.06509
H         40.18845        10.29260        -5.44199
H         40.03326        12.17444        -5.77952
H         39.96868        14.58300        -5.92219
H         39.61908        16.50930        -6.36790
H         37.21268        20.05773        -5.95599
H         39.15669        18.85625        -6.90401
