         260
 CSIRO Nanostructure Databank - Neutral Graphene Oxide Data Set
C         30.46034        31.68684        -0.53974
C         30.58007        32.94904        -0.55158
C         30.38341        36.08467        -0.30910
C         30.48122        37.32253        -0.68516
C         30.40770        40.47000        -0.84756
C         30.43660        41.70576        -0.72945
C         32.85639        28.89068        -1.33670
C         31.81069        29.51949        -1.10535
C         32.81241        31.65668        -1.12366
C         31.62739        30.92683        -0.89808
C         32.84622        33.17434        -1.23694
C         31.57870        33.89022        -0.71166
C         32.80170        35.98724        -0.40368
C         31.58599        35.28985        -0.54287
C         32.79081        37.48506        -0.09200
C         31.56120        38.17687        -0.69372
C         32.85874        40.46602        -0.62433
C         31.58478        39.61173        -0.97733
C         32.73630        41.89961        -0.23789
C         31.50645        42.56639        -0.32616
C         32.50949        44.54301         0.58046
C         31.52837        43.92608         0.14115
C         35.48574        27.28447        -1.39756
C         35.40794        28.71547        -1.71796
C         34.12586        29.47228        -1.77811
C         35.37917        31.73274        -1.21782
C         34.08651        31.00357        -1.53424
C         35.30247        33.11411        -0.62699
C         34.10012        33.77923        -0.60624
C         35.31751        35.88736         0.11134
C         34.01221        35.17608        -0.12325
C         35.31079        37.38298         0.00039
C         34.09625        38.20537        -0.43806
C         35.04070        40.31063         0.76038
C         34.20613        39.76176        -0.39510
C         35.02252        41.78936         0.95062
C         33.99967        42.65798         0.20208
C         35.01575        44.77824         1.16363
C         33.74693        43.94669         1.17375
C         35.17885        46.10075         0.49428
C         37.86196        27.21883        -0.83447
C         36.59244        26.72230        -1.27121
C         37.84535        28.60642        -0.72686
C         36.70975        29.42812        -1.24621
C         37.75154        31.58452        -0.22090
C         36.65225        30.93132        -1.01226
C         37.80007        33.07936        -0.22729
C         36.57434        33.79252        -0.31932
C         37.85361        35.88736        -0.12911
C         36.60633        35.20300        -0.16440
C         38.01730        37.37840        -0.35230
C         36.22744        38.06672         0.90809
C         37.65752        40.25727         1.09466
C         36.32233        39.53299         1.05609
C         37.57100        41.73201         0.81143
C         36.33444        42.46733         1.42139
C         37.55012        44.70715         0.66950
C         36.32373        44.00751         1.21704
C         37.60509        46.20638         0.82537
C         36.31096        46.68015         0.71797
C         40.35417        24.41491        -0.31426
C         39.25798        25.01549        -0.43999
C         40.44457        27.13079        -0.48416
C         39.11598        26.42872        -0.78164
C         40.33810        28.57582        -0.08134
C         39.02710        29.29745        -0.14703
C         40.28159        31.54423         0.09246
C         38.98344        30.79077         0.06750
C         40.21606        32.98916         0.60499
C         39.00442        33.74869         0.07366
C         40.36605        35.94856         0.11981
C         39.04701        35.16357         0.07337
C         40.21552        37.29510         0.84267
C         38.96022        38.07714         0.62106
C         40.12499        40.28008         0.76767
C         38.95499        39.57349         0.78380
C         40.18547        41.80412         0.86179
C         38.84617        42.43963         0.48690
C         40.11393        44.67672         0.31384
C         38.80340        43.94296         0.41074
C         40.17757        45.97052         1.09915
C         38.86089        46.76805         1.32580
C         40.30947        48.53928         2.03022
C         39.20348        48.18253         1.52619
C         42.80085        24.41173         0.64141
C         41.59938        24.93469         0.11227
C         42.70047        27.12136         0.63332
C         41.63752        26.40261         0.08249
C         42.68999        28.64195         0.75127
C         41.67056        29.29605        -0.18962
C         42.86009        31.47964         0.38998
C         41.58575        30.80105         0.03440
C         42.75810        32.91372         0.87652
C         41.54604        33.70474         0.23323
C         42.74471        35.84458         0.87026
C         41.57958        35.17837         0.63262
C         42.76077        37.33201         1.06954
C         41.46999        38.08025         1.12654
C         42.69064        40.36394         0.60870
C         41.43520        39.59380         0.93190
C         42.62123        41.78623         0.11216
C         41.42705        42.44743         0.17656
C         42.66990        44.75263        -0.05192
C         41.38033        43.93383        -0.01666
C         42.71631        46.14593         0.52753
C         41.57718        46.49165         1.51590
C         42.91714        48.34667         2.21453
C         41.59751        48.00251         1.97589
C         43.73469        25.00351         1.22506
C         45.11998        27.22007         1.61548
C         43.84856        26.45423         1.33304
C         45.27515        28.63477         1.05314
C         44.05410        29.29794         0.48523
C         45.38246        31.46742         0.21198
C         44.03384        30.79067         0.42107
C         45.27694        32.99241         0.24395
C         44.01796        33.70742         0.58914
C         45.33171        35.89140         0.90122
C         44.04215        35.09995         1.20403
C         45.31779        37.40425         0.76815
C         43.98353        38.08320         0.61252
C         45.22899        40.31846         0.32481
C         43.93450        39.55620         0.35046
C         45.17119        41.64637        -0.32875
C         43.94895        42.50019        -0.09962
C         45.16577        44.87862        -0.55743
C         43.98070        44.02205        -0.18275
C         45.31480        46.24056         0.03448
C         44.05909        46.90223         0.68310
C         43.99605        47.82183         1.78894
C         47.50986        27.38401         2.00068
C         46.48768        26.71601         1.82807
C         47.72798        28.83545         2.06433
C         46.42451        29.50178         1.56136
C         47.76566        31.68159         1.18951
C         46.48198        30.94874         1.14736
C         47.76591        33.10401         0.85842
C         46.59594        33.72219         0.11375
C         47.66028        35.90620         0.01656
C         46.53371        35.21053         0.37883
C         47.67220        37.35512        -0.05170
C         46.51251        38.07690         0.22061
C         47.71725        40.23199        -0.33452
C         46.50962        39.54705         0.16586
C         47.65943        41.56077        -0.85648
C         46.29923        42.09026        -0.96524
C         47.65919        44.63533        -0.92327
C         46.30183        44.28110        -1.11836
C         47.65261        45.78739        -0.10657
C         46.72517        46.52552         0.31145
C         50.37820        29.09543         1.99741
C         49.00649        29.61124         2.09078
C         50.34905        31.69628         1.07345
C         49.03371        31.06573         1.60460
C         50.29560        33.03074         0.34309
C         49.04771        33.83770         0.53004
C         50.18346        35.86148        -0.59513
C         48.92208        35.13598        -0.23301
C         50.04621        37.33524        -0.99245
C         48.89086        38.05537        -0.38024
C         50.43990        40.40636        -1.51528
C         48.89271        39.44585        -0.27643
C         49.90706        41.61721        -2.03198
C         48.75792        42.29683        -1.40771
C         49.02062        44.04016        -3.04060
C         48.79517        43.86388        -1.51966
C         51.44803        29.63952         1.70976
C         52.75091        31.79874         0.85130
C         51.62991        30.79533         0.77241
C         52.71569        32.96400         0.44027
C         51.57411        33.77708        -0.04165
C         52.46014        35.95917        -1.18676
C         51.56866        35.29834        -0.15019
C         52.31953        37.08216        -1.68104
C         51.16953        37.99672        -1.82312
C         51.56120        40.00330        -3.45125
C         51.22640        39.44952        -2.20257
C         51.29342        41.16065        -3.89997
C         50.37682        42.05912        -3.33443
C         49.85188        43.35127        -3.66896
O         34.41040        40.87805         1.92457
O         37.65211        37.93995        -1.37711
O         49.47029        35.06045        -1.57191
O         32.46811        40.12216        -2.00925
O         40.53731        44.51644        -1.06780
O         48.23167        29.40020         3.28511
O         34.01697        30.39446        -2.87224
O         45.01603        28.63020        -0.38063
O         38.01817        31.08549         1.13839
O         42.17889        37.72225         2.35346
O         48.47471        33.94441         1.85044
O         36.40190        31.65690        -2.25136
O         44.16093        27.04513         2.66137
O         38.01677        41.88216        -0.57072
O         35.77776        44.67168         2.39668
O         42.22242        40.26046         1.98973
O         50.13208        40.08703        -0.18965
O         44.21777        43.33137         1.10952
O         37.90709        44.33059        -0.68826
O         35.04557        37.72931        -1.39430
O         46.05392        40.15884         1.50215
O         46.10189        43.13122        -1.88249
O         44.58443        47.34194        -0.56531
O         50.03887        37.39024        -2.47644
O         45.59478        36.77665         2.05448
O         34.58788        35.34717         1.24949
O         40.97799        31.40606        -1.17629
O         43.81187        38.60685        -0.75567
O         45.96740        30.53145         2.47472
O         40.05408        26.82383        -1.84100
O         36.99169        39.82862         2.32152
O         36.40723        29.12495        -2.64806
O         39.17953        37.32857         1.86318
O         44.39841        33.55970        -0.80225
O         49.96696        31.85033         2.44409
O         41.67108        33.80833        -1.14988
O         39.41047        45.84029         2.33850
O         39.54467        28.70907         1.12036
O         50.82644        33.03071        -1.01335
O         42.45517        45.94234        -0.86433
O         32.90040        33.49142        -2.65375
H         33.35122        32.76347        -3.13414
O         40.33612        42.16033         2.25588
H         41.11329        41.65826         2.60900
O         40.03603        32.97319         2.03043
H         39.27543        32.38228         2.23427
O         36.57757        37.36787         1.96832
H         37.01465        37.96956         2.62720
O         45.81349        31.09378        -1.11082
H         45.18294        31.48013        -1.75584
O         32.74198        37.67086         1.35835
H         31.96026        37.17909         1.69262
O         42.15470        29.08063        -1.52400
H         41.79635        29.79276        -2.10069
O         42.55064        32.75417         2.27798
H         42.83102        33.57394         2.75311
O         51.85702        35.83654         1.13028
H         52.69601        35.45261         1.46226
O         42.30059        28.98797         2.08971
H         42.84682        28.46763         2.72616
O         49.96688        44.30220        -0.87066
H         50.74632        43.85900        -1.26501
O         51.52847        30.34385        -0.54681
H         52.37248        29.93849        -0.83147
O         44.04589        34.88121         2.63773
H         44.36630        35.71344         3.06239
O         36.45366        42.28332         2.83415
H         35.78703        41.61756         3.12253
O         40.69229        36.23806        -1.25619
H         41.07620        35.37451        -1.60871
O         35.02227        40.16541        -1.51956
H         34.56125        39.88419        -2.34287
O         33.48970        43.48764         2.47276
H         34.14337        43.89735         3.08668
O         41.94628        45.72782         2.67409
H         41.18136        45.72957         3.29438
O         46.97761        33.55912        -1.27850
H         46.19353        33.77955        -1.82905
O         34.64677        43.17812        -0.96256
H         34.80678        42.44417        -1.59723
