         276
 CSIRO Nanostructure Databank - Neutral Graphene Oxide Data Set
C        -10.92336         0.61922         0.88391
C         -9.69375         1.31666         1.27774
C         -8.44730         0.50699         1.19482
C         -7.17613         1.25363         0.98698
C         -6.09923         0.58662         0.19887
C         -4.85306         1.35873        -0.05800
C         -3.61821         0.62131        -0.48905
C         -2.35967         1.37971        -0.77251
C         -1.05653         0.64002        -1.13886
C          0.20745         1.38041        -0.76599
C          1.45409         0.66296        -1.18938
C          2.74495         1.42746        -1.09435
C          4.02695         0.72781        -1.38022
C          5.29143         1.48179        -1.40228
C          6.60007         0.73367        -1.54412
C          7.80203         1.46517        -0.85714
C          8.56723         0.83470         0.30742
C          9.99131         1.42454         0.46396
C         10.68840         0.76193         1.63382
C         -9.62143         2.65126         1.56905
C         -8.28986         3.35331         1.87144
C         -7.24276         2.77999         0.88546
C         -5.87543         3.44634         1.00291
C         -4.67995         2.75583         0.44123
C         -3.63688         3.59674        -0.31764
C         -2.31335         2.85073        -0.51701
C         -1.15885         3.56293        -0.63773
C          0.14650         2.86105        -0.53040
C          1.43303         3.60621        -0.54505
C          2.67548         2.92626        -1.06331
C          3.96871         3.66106        -1.05156
C          5.24490         2.86553        -0.93942
C          6.52274         3.68345        -0.77218
C          7.84015         2.96388        -0.74251
C          8.89727         3.65244         0.07131
C          9.89900         2.93846         0.62431
C         -8.26954         4.86567         1.76524
C         -7.09039         5.60301         1.53580
C         -5.85104         4.93190         1.09516
C         -4.66845         5.60147         0.92836
C         -3.42986         4.91620         0.45120
C         -2.22947         5.72285         0.04949
C         -1.25188         5.06263        -0.96478
C          0.11869         5.75614        -1.04943
C          1.38256         5.09741        -0.62859
C          2.68329         5.82703        -0.69588
C          4.01348         5.08069        -0.47953
C          5.19700         5.84339        -1.11248
C          6.48766         5.13928        -0.76853
C          7.52082         5.81300         0.09081
C          8.92671         5.17302        -0.03939
C         -7.05468         6.99700         1.72779
C         -5.87427         7.81040         1.27107
C         -4.57023         7.03157         1.32797
C         -3.28659         7.80862         1.15599
C         -2.26652         7.19299         0.26691
C         -1.52118         8.08297        -0.43893
C          0.20624         7.07018        -1.36201
C          1.41458         7.94190        -1.36013
C          2.72985         7.23110        -1.22512
C          3.95743         7.97739        -0.88305
C          5.13825         7.31043        -0.73158
C          6.34013         8.01165        -0.28931
C          7.48559         7.32507         0.00294
C         -5.71753         9.18917         1.86622
C         -4.56873         9.88658         1.72546
C         -3.35061         9.30879         1.14915
C         -2.31606        10.06712         0.68475
C         -1.05550         9.36835         0.19507
C         -0.02759        10.11895        -0.70595
C          1.32607         9.37249        -0.89862
C          2.48814        10.02103        -0.63100
C          3.86728         9.48095        -0.99410
C          5.04646        10.12661        -0.31004
C          6.19242         9.45432        -0.06776
C        -11.00509        -0.70308         0.57648
C         -9.86063        -1.64151         0.74084
C         -8.54017        -0.97434         0.94021
C         -7.25604        -1.76558         0.70050
C         -6.10454        -0.93428        -0.03903
C         -4.75965        -1.58946         0.36214
C         -3.50022        -0.82982        -0.12261
C         -2.20689        -1.53619        -0.42514
C         -0.87114        -0.85075        -0.69697
C          0.12414        -1.47349        -1.64033
C          1.32783        -0.63707        -2.07030
C          2.67386        -1.42868        -2.14740
C          3.96173        -0.70142        -1.85377
C          5.14471        -1.51002        -1.41208
C          6.43959        -0.78060        -1.15762
C          7.40072        -1.42408        -0.18577
C          8.53293        -0.67694         0.42536
C          9.16878        -1.19252         1.68225
C         10.31526        -0.42325         2.16280
C         -9.85610        -3.08519         0.33968
C         -8.72795        -3.85955         0.25833
C         -7.38592        -3.15401        -0.02356
C         -6.02435        -3.82625         0.24754
C         -4.80101        -3.03813        -0.13284
C         -3.50637        -3.73450        -0.41878
C         -2.18496        -3.02457        -0.51777
C         -1.08805        -3.70291        -1.29016
C          0.06437        -2.91123        -1.88555
C          1.33961        -3.69728        -2.16105
C          2.72555        -3.00508        -2.25070
C          3.71961        -3.61439        -1.27698
C          4.84562        -2.87067        -0.84571
C          5.77778        -3.41116         0.03426
C          6.80514        -2.53372         0.63447
C          7.43660        -2.95232         1.91838
C          8.71336        -2.30822         2.31602
C         -8.83969        -5.28567        -0.11080
C         -7.89434        -6.23710         0.17606
C         -5.84410        -5.13813         0.55437
C         -4.64234        -5.88293         0.17724
C         -3.34904        -5.22874        -0.22538
C         -2.64791        -5.84217        -1.46626
C         -1.29477        -5.13815        -1.74787
C         -0.04344        -5.92165        -2.02351
C          1.32506        -5.22510        -2.01885
C          2.59572        -5.93832        -1.61590
C          3.90532        -5.13035        -1.35216
C          4.75750        -5.72824        -0.21598
C          5.87709        -4.86643         0.39455
C          6.06493        -5.02725         1.90647
C          6.91841        -4.20283         2.54971
C         -7.80693        -7.60794        -0.32443
C         -6.69851        -8.40000        -0.11735
C         -4.69979        -7.23655         0.06704
C         -3.88769        -8.01543        -0.95270
C         -2.54090        -7.34767        -1.23796
C         -1.38044        -8.03428        -1.31491
C         -0.08418        -7.43275        -1.86843
C          1.16985        -8.10376        -1.28916
C          2.60049        -7.44953        -1.26173
C          3.18403        -7.79859         0.11675
C          4.43730        -7.02488         0.46652
C          5.27081        -7.37015         1.71769
C          5.29166        -6.12504         2.62237
C         -6.36778        -9.73767        -0.57569
C         -5.08897       -10.22687        -0.58272
C         -3.83017        -9.46822        -0.55264
C         -2.62897       -10.04197        -0.30789
C         -1.29638        -9.47245        -0.75644
C         -0.23590        -9.35198         0.34255
C          0.91529        -8.70115         0.06728
C          2.07785        -8.44659         0.95512
C          3.29444        -9.26605         0.49191
C          4.14994        -9.60317         1.66175
C          4.85959        -8.68599         2.33767
O          0.17768        -8.14154        -3.15521
O          2.22789         7.58928        -2.56067
O          0.88849         3.15553         0.72008
O          6.25462        -1.59222        -2.36448
O         -5.70049        -7.90183         0.74663
O          8.75307        -1.54630        -0.72518
O          8.48647         2.27223        -1.86795
O          5.78640         3.07735         0.41959
O          3.51733        -0.87620        -3.21996
O         -2.51427        -1.03884         0.92934
O          1.00697         0.67976         0.19415
O         -4.16742         3.95837        -1.56553
O          2.20972        -5.81522        -3.02361
O         -3.66264         7.23941         2.44742
O         -1.04458        -3.62269         0.18232
O         -3.33275         1.01237        -1.85166
O         -0.88281        -5.41476        -3.10954
O          1.17117        -9.00871        -2.47415
O         -6.88841        -5.88152         1.09694
O         -4.84766         2.84946         1.88096
O         -0.97384         7.74705        -1.69004
O          1.92841         5.77719         0.56793
O          3.20972         3.53699        -2.28469
O          3.51005         0.85634         0.02242
O         -7.45073         0.70490         2.30190
O         -5.91055         1.30064        -1.07663
O          5.30909        -6.99897        -0.70198
O         -2.27999         4.98928         1.32625
O         -9.27615        -1.52336         2.09528
O          0.48059        -3.28271        -3.25542
O          6.31429        -1.95283         1.91946
O         -4.36501        -3.26914        -1.51935
O         -1.84941         5.14719        -2.26663
H         -2.76670         4.73055        -2.21951
O         -4.67279        -1.57142         1.78923
H         -3.72638        -1.64826         2.05041
O         -1.03916         0.60006        -2.57785
H         -1.96604         0.58505        -2.91270
O         -7.91481         3.11243         3.24344
H         -7.71258         2.14699         3.33133
O          3.18796        -3.31776        -3.58196
H          2.42937        -3.19300        -4.19500
O         -7.75296         3.12543        -0.42026
H         -7.09908         2.82390        -1.09604
O         -0.27765         9.00007         1.37281
H         -0.85553         8.50443         1.99239
O          7.07594         5.46821         1.44424
H          6.09178         5.34095         1.44141
O          3.11962       -10.27162        -0.45920
H          3.18654        -9.87162        -1.35654
O         -0.20182        -1.10629         0.58128
H         -0.41326        -2.03775         0.83501
O         -3.47644        -5.57921        -2.61328
H         -2.90298        -5.65427        -3.41013
O          7.79149         1.27864         1.45541
H          8.15102         0.86101         2.26674
O         -6.87148        -2.17380         2.01642
H         -7.00084        -1.41913         2.63160
O          1.09427        -0.18959        -3.42139
H          1.96386        -0.13804        -3.88269
O          5.01552         5.74798        -2.54899
H          5.60285         6.40116        -2.98349
O         -2.44565        -5.49069         0.87947
H         -2.89745        -5.25715         1.71721
O         -7.51132        -3.09841        -1.45925
H         -6.62010        -3.04463        -1.86969
O          9.49144         5.51202        -1.31351
H          9.27458         4.80791        -1.95914
O          6.88267         0.77340        -2.96153
H          6.64043        -0.10828        -3.33844
O          6.64637        -7.59207         1.34578
H          6.72730        -7.39421         0.37847
O         -0.59380        10.41239        -1.97732
H         -0.78902         9.56081        -2.43053
O         -6.10073         7.99809        -0.17362
H         -6.95279         8.46849        -0.29196
O          4.27854         5.04078         0.92783
H          3.40680         5.05438         1.39604
O          7.13310        -5.28828        -0.21242
H          6.96554        -5.41173        -1.17291
O          3.40505        -8.09600        -2.24788
H          3.20174        -7.69037        -3.11909
O         10.77045         1.15165        -0.71537
H         10.28330         1.53376        -1.48278
O          4.02219         9.75690        -2.42638
H          3.36358         9.18678        -2.89266
O         -4.67524        -7.94120        -2.17244
H         -4.55099        -7.03330        -2.54893
O          4.73543        -5.30055        -2.52350
H          4.27171        -4.84687        -3.27076
O          3.93777        -5.68651         2.81818
H          3.94919        -4.89900         3.40087
O         -6.22127        -1.09924        -1.45450
H         -6.00891        -0.23713        -1.88988
O         -0.90397       -10.44769        -1.73404
H         -0.01637       -10.21898        -2.09925
H         10.87640        -0.83884         3.01439
H         11.56805         1.27935         2.04724
H         10.73062         3.45617         1.12890
H          9.58863         5.60315         0.75370
H          8.36212         7.87410         0.38023
H          7.05106         9.98300         0.37446
H          4.99177        11.20501        -0.09547
H          2.44308        11.06038        -0.26532
H          0.21041        11.09722        -0.21688
H         -2.37711        11.16647         0.70542
H         -4.52257        10.93334         2.06395
H         -6.60017         9.67120         2.31473
H         -7.95373         7.51641         2.09801
H         -9.17869         5.42118         2.05048
H        -10.55044         3.24268         1.60771
H        -11.82963         1.23802         0.79284
H        -11.97056        -1.11316         0.24226
H        -10.84101        -3.57956         0.30117
H         -9.72823        -5.58484        -0.69018
H         -8.60852        -7.97113        -0.98360
H         -7.19251       -10.42012        -0.83575
H         -4.96831       -11.30384        -0.78665
H         -2.59136       -11.10357        -0.01603
H         -0.42592        -9.75923         1.34677
H          1.93297        -8.23891         2.02720
H          4.04431       -10.62497         2.05805
H          5.40401        -8.98002         3.24816
H          5.76985        -6.34728         3.61452
H          7.11152        -4.34048         3.62684
H          9.23717        -2.68751         3.20694
