         244
 CSIRO Nanostructure Databank - Neutral Graphene Oxide Data Set
C          1.38507         2.14525         1.62622
C          1.36135         3.53478         1.48579
C          2.55740         1.42534         1.42158
C          2.52598         4.25454         1.11474
C          1.39522         6.49446         1.36608
C          1.32260         7.81673         1.07498
C          2.51797         5.68235         0.95753
C          2.31268         8.45750         0.13407
C          1.19843        10.70960         0.38847
C          1.21691        12.10598         0.40162
C          2.37382         9.96869         0.24492
C          2.41561        12.82746         0.23414
C          1.27509        15.04015         0.59281
C          1.29635        16.42126         0.68530
C          2.44225        14.29261         0.27899
C          2.48533        17.14721         0.43676
C          2.52917        18.57417         0.51251
C          3.75694         2.09653         1.05965
C          3.73404         3.52111         0.88348
C          4.96409         1.38213         0.88810
C          4.92832         4.20269         0.50087
C          3.68300         6.35303         0.47193
C          3.65574         7.76730         0.21365
C          4.87583         5.60227         0.26766
C          4.83569         8.49507        -0.07644
C          3.59947        10.66334         0.05159
C          3.61659        12.09910         0.02750
C          4.80094         9.91702        -0.17461
C          4.87077        12.81266        -0.13382
C          3.64792        14.98856         0.03507
C          3.66887        16.42946         0.07869
C          4.88415        14.27237        -0.17018
C          4.84845        17.14758        -0.21627
C          3.68984        19.26041         0.25913
C          4.88995        18.56497        -0.11213
C          6.18123         2.04492         0.60610
C          6.16796         3.46878         0.41201
C          7.40629         1.33176         0.50341
C          7.40728         4.13573         0.23205
C          6.06608         6.30734        -0.21683
C          6.09083         7.77681        -0.21476
C          7.40765         5.56137        -0.15929
C          7.30836         8.42140        -0.38825
C          6.02322        10.65845        -0.51199
C          6.05390        12.11856        -0.30768
C          7.31202         9.87890        -0.62388
C          7.34611        12.87005        -0.07235
C          6.06394        14.96755        -0.46040
C          6.01605        16.42599        -0.82655
C          7.32160        14.29867        -0.55719
C          7.32712        17.14668        -0.64531
C          6.10145        19.26340        -0.33402
C          7.33381        18.57240        -0.53962
C          8.63155         2.00133         0.33295
C          8.61764         3.43030         0.26750
C          9.88639         1.31368         0.21386
C          9.90519         4.15230         0.28607
C          8.62844         6.36461        -0.06127
C          8.57169         7.72400        -0.29521
C          9.91463         5.66407         0.18930
C          9.83848         8.49570        -0.33507
C          8.60445        10.60734        -0.52014
C          8.62514        12.09236        -0.42566
C          9.84019         9.87454        -0.83070
C          9.77281        12.79991        -1.10582
C          8.51059        14.99426        -0.72988
C          8.53312        16.43854        -0.74651
C          9.76792        14.28854        -1.07142
C          9.78640        17.12063        -0.78856
C          8.57254        19.24871        -0.57933
C          9.78915        18.54443        -0.70737
C         11.09372         1.97839        -0.04116
C         11.13362         3.43363        -0.09130
C         12.33051         1.28351        -0.13895
C         12.28177         4.12406        -0.43648
C         11.15823         6.29087        -0.29323
C         11.15551         7.76111        -0.34564
C         12.29430         5.56125        -0.55026
C         12.30180         8.44704        -1.05596
C         11.08657        10.66193        -0.74690
C         11.08755        12.04025        -1.36856
C         12.38452         9.93027        -0.74987
C         12.34731        12.83435        -1.07480
C         11.06386        14.99152        -1.02643
C         11.03497        16.40095        -0.88195
C         12.30007        14.26466        -1.04619
C         12.26315        17.12165        -0.81733
C         11.04380        19.23520        -0.73332
C         12.24091        18.55242        -0.77452
C         13.53996         1.95288        -0.39418
C         13.51136         3.37705        -0.90550
C         14.76621         1.29983        -0.27190
C         14.80074         4.14893        -0.65436
C         13.52936         6.23570        -1.12728
C         13.59626         7.71505        -0.86060
C         14.81884         5.53378        -0.76869
C         14.79641         8.41994        -1.41042
C         13.64128        10.65363        -1.05313
C         13.60432        12.12936        -1.02754
C         14.79778         9.92469        -1.12702
C         14.80661        12.83440        -0.97587
C         13.52619        15.01177        -0.96173
C         13.49970        16.40117        -0.82913
C         14.85243        14.32088        -1.22273
C         14.75226        17.13579        -0.62438
C         13.52636        19.33391        -0.82408
C         14.76185        18.50434        -0.59328
C         16.01019         1.99533        -0.35459
C         16.01985         3.43200        -0.48573
C         17.22115         1.30037        -0.22973
C         17.25469         4.14566        -0.48623
C         16.06010         6.28882        -0.79719
C         16.06486         7.68159        -1.04569
C         17.27919         5.55241        -0.66368
C         17.34092         8.47888        -1.24339
C         16.10173        10.62250        -1.05653
C         16.09221        12.11690        -0.92904
C         17.21679         9.80341        -0.41647
C         17.26890        12.78299        -0.32223
C         16.02962        15.01094        -0.55810
C         15.96237        16.36408        -0.34163
C         17.23721        14.24367        -0.20288
C         17.06243        17.07933         0.41594
C         16.02526        19.31701        -0.45859
C         17.18117        18.56610         0.14381
C         18.45932         1.98864        -0.19370
C         18.47798         3.40380        -0.32900
C         19.68303         1.28808         0.03080
C         19.70829         4.11547        -0.13832
C         18.61576         6.18579        -0.99153
C         18.64402         7.71925        -0.93865
C         19.72321         5.51860        -0.20849
C         19.79297         8.45671        -0.31870
C         18.49301        10.60229        -0.20655
C         18.40479        12.04113        -0.02775
C         19.68462         9.91474        -0.00070
C         19.70355        12.78694         0.22869
C         18.36956        14.91456         0.20235
C         18.39364        16.38822         0.21916
C         19.50445        14.17868         0.87369
C         19.63703        17.13369         0.58452
C         18.28345        19.22957         0.57419
C         19.43366        18.51139         1.10717
C         20.87709         1.97405         0.18430
C         20.91225         3.38335         0.14038
C         22.15123         4.12093         0.23485
C         20.84661         6.22021         0.49921
C         20.93506         7.70774         0.26271
C         22.14979         5.47273         0.32675
C         22.01567         8.40525         0.70690
C         20.88268        10.56709         0.48235
C         20.76028        11.98538         0.99590
C         22.01089         9.83681         0.76550
C         22.03740        12.77846         1.02578
C         20.83000        14.91145         0.89005
C         20.95454        16.42433         0.87020
C         22.01082        14.16262         0.98232
C         21.60452        16.95197         2.13318
C         20.25995        19.00050         2.07478
C         21.30412        18.16819         2.63621
O         16.47028        11.41858        -2.21446
O         19.23803        16.98768        -0.82787
O         11.84207        10.46146         0.50284
O          8.96616        11.31238         0.76888
O         10.03033         5.00395         1.49504
O          9.42334        13.50824        -2.33144
O          6.60007        10.26446        -1.84613
O         19.71413         8.22401        -1.81412
O          6.67776         5.73942        -1.42394
O         10.67926         8.32570         0.89832
O         20.27282        12.99701        -1.08713
H         19.59373        13.42104        -1.65328
O         13.62138        19.99167        -2.09899
H         14.57447        20.19888        -2.25219
O         19.05218        14.08743         2.25482
H         19.54855        13.34843         2.68675
O         16.39567        19.80820        -1.77496
H         16.73375        19.04813        -2.29410
O         16.77423         9.38542         0.90017
H         16.75349        10.16630         1.49235
O         20.30241        11.79677         2.38432
H         21.00213        11.30349         2.86288
O         11.14532        11.75991        -2.79793
H         10.67454        12.50156        -3.25039
O          7.36299        13.07302         1.38518
H          7.83400        12.29727         1.77629
O         16.73770        16.93525         1.83289
H         15.81549        17.23849         1.96623
O          5.76118        16.45243        -2.29152
H          5.75921        17.39487        -2.56498
O         21.86210        16.75527        -0.22080
H         21.32162        16.74024        -1.04264
O         18.86369         5.83551        -2.39458
H         19.54570         6.46613        -2.72179
O         17.37850         8.83975        -2.64405
H         18.32383         9.01858        -2.86559
O         13.39431         3.26401        -2.35783
H         13.37270         4.19031        -2.71389
O         13.42501         6.02630        -2.59313
H         13.97913         6.73448        -3.01780
O         14.72283         8.38051        -2.93017
H         15.61565         8.68389        -3.24077
O         11.94912         8.37147        -2.47793
H         12.76910         8.55794        -2.99482
O          1.80383         8.19756        -1.23013
H          1.81359         7.22538        -1.36177
O         20.51962         6.11693         1.94983
H         20.46862         5.15956         2.16210
O         15.09653        14.46003        -2.67108
H         14.48937        13.84514        -3.13564
H          0.46317         1.61643         1.90651
H          0.41674         4.06896         1.65432
H          2.56850         0.33325         1.54573
H          0.60287         6.03559         1.97512
H          0.46462         8.40305         1.43385
H          0.23203        10.19547         0.48260
H          0.26338        12.63498         0.52918
H          0.32835        14.52011         0.79044
H          0.37833        16.96661         0.94819
H          1.61267        19.11770         0.78513
H          4.96476         0.29031         1.02437
H          3.71543        20.35726         0.33420
H          7.39309         0.23478         0.58395
H          6.11234        20.35988        -0.24610
H          9.88803         0.21529         0.28048
H          8.59252        20.34546        -0.49492
H         12.35218         0.20427         0.07967
H         11.04477        20.33481        -0.71319
H         14.78359         0.22633        -0.02626
H         13.49589        20.13171        -0.01149
H         17.20886         0.20581        -0.12075
H         15.80732        20.23285         0.15474
H         19.66320         0.19100         0.09904
H         18.32319        20.32916         0.52187
H         21.81160         1.42011         0.35594
H         23.09945         3.56327         0.20426
H         23.10068         6.02014         0.39289
H         22.88323         7.88204         1.13196
H         22.90121        10.32846         1.18101
H         23.00620        12.26798         1.11558
H         22.96673        14.70808         1.00781
H         22.40600        16.34827         2.58392
H         20.09500        20.00303         2.49386
H         21.84705        18.54722         3.51460
