         294
 CSIRO Nanostructure Databank - Neutral Graphene Oxide Data Set
C          1.23466         1.95371         0.78938
C          1.20751         3.35111         0.65956
C          2.41385         1.25660         0.60145
C          2.34842         4.06761         0.24698
C          1.16846         6.34474         0.64966
C          1.19117         7.71455         0.68058
C          2.23534         5.54465         0.01024
C          2.27569         8.51268         0.20409
C          1.14938        10.72791         0.48543
C          1.20415        12.14295         0.36419
C          2.27811         9.92677         0.25321
C          2.30008        12.82135        -0.13681
C          1.10581        15.11711        -0.23747
C          1.16638        16.46607        -0.19409
C          2.26690        14.25088        -0.54454
C          2.36362        17.24346        -0.57467
C          2.53671        18.64647        -0.12720
C          3.61794         1.95307         0.27229
C          3.54001         3.36156        -0.03147
C          4.84772         1.27799         0.32708
C          4.75949         4.03819        -0.53905
C          3.44537         6.30886        -0.46755
C          3.44895         7.85226        -0.50466
C          4.74859         5.54639        -0.61611
C          4.75600         8.51245        -0.12726
C          3.58837        10.69396         0.24011
C          3.54310        12.03278        -0.51597
C          4.82188         9.87262        -0.05823
C          4.78589        12.80560        -0.13180
C          3.59673        14.95885        -0.75415
C          3.65321        16.45696        -0.82599
C          4.81375        14.25621        -0.24323
C          4.90958        17.16001        -0.62831
C          3.70352        19.29856        -0.28571
C          4.92792        18.64131        -0.89784
C          6.12234         2.04958         0.41231
C          6.08990         3.25815        -0.55373
C          7.36261         1.23669         0.14396
C          7.31285         4.10206        -0.31913
C          6.00811         6.23396        -0.18514
C          5.98161         7.70621         0.05654
C          7.30745         5.49723        -0.28838
C          7.26934         8.45573        -0.03517
C          6.09341        10.59120         0.09153
C          6.09706        12.07104        -0.25578
C          7.26759         9.91100         0.25329
C          7.32575        12.79199         0.32541
C          6.13644        15.01415        -0.19855
C          6.21125        16.43378        -0.76495
C          7.41154        14.24831        -0.07689
C          7.34965        17.16176        -0.00975
C          6.21067        19.32246        -0.47378
C          7.38271        18.69351        -0.19649
C          8.56644         1.87823        -0.07799
C          8.58764         3.38509         0.06989
C          9.81178         1.21422        -0.25938
C          9.81995         4.02649        -0.53597
C          8.52485         6.21749        -0.17351
C          8.54320         7.69279        -0.10741
C          9.78056         5.55741        -0.51915
C          9.81021         8.41015         0.07965
C          8.55340        10.60308         0.68746
C          8.62284        11.98903        -0.03234
C          9.84279         9.80566         0.43779
C          9.90756        12.74705         0.25551
C          8.58733        14.92574         0.05514
C          8.62931        16.36435        -0.17699
C          9.85989        14.23321         0.51117
C          9.83315        16.95669        -0.37986
C          8.54113        19.49460         0.26969
C          9.83466        19.17164        -0.08389
C         11.05899         1.90911        -0.32359
C         11.09017         3.32732        -0.39612
C         12.30313         1.20062        -0.35744
C         12.40444         4.07667        -0.28241
C         11.08460         6.24998        -0.15416
C         11.00679         7.73809        -0.43852
C         12.29609         5.53699        -0.80820
C         12.29302         8.50783        -0.64081
C         11.14992        10.60080         0.18382
C         11.09203        12.09175         0.20567
C         12.31292         9.93488        -0.34324
C         12.40800        12.80470         0.36657
C         11.15814        14.92025         0.09330
C         11.11438        16.40331         0.07582
C         12.34945        14.28819         0.13284
C         12.33244        17.26442         0.20308
C         11.13647        19.58228         0.34854
C         12.29481        18.77520         0.22985
C         13.55423         1.86349        -0.43439
C         13.56006         3.30819        -0.95244
C         14.71466         1.19994        -0.05054
C         14.93971         4.13964        -0.81980
C         13.58300         6.28705        -0.52366
C         13.61518         7.76794        -0.87744
C         14.74894         5.59586        -0.37131
C         14.79942         8.55091        -0.35455
C         13.54871        10.67438        -0.62179
C         13.57620        12.16792        -0.36843
C         14.80814         9.90440        -0.44580
C         14.84304        12.86796        -0.19304
C         13.63709        15.08652         0.30227
C         13.61391        16.54541        -0.28381
C         14.89916        14.36294        -0.21102
C         14.97441        17.23159         0.05854
C         13.54113        19.34063         0.55840
C         14.77499        18.64777         0.54273
C         15.77412         2.02324         0.64691
C         16.11575         3.33377        -0.07325
C         17.13908         1.31728         0.94401
C         16.97286         4.15019         0.93929
C         15.93269         6.32635         0.08107
C         16.01627         7.84365         0.19933
C         16.86857         5.61247         0.74118
C         17.32069         8.44065        -0.46331
C         16.08933        10.68755        -0.65114
C         16.11213        12.09972        -0.02752
C         17.38968         9.96484        -0.21319
C         17.34224        12.90158        -0.56500
C         16.16430        14.98157         0.43125
C         16.08748        16.46458         0.83182
C         17.45382        14.31744         0.03514
C         17.13175        17.27818         0.01775
C         15.94301        19.31516         0.86326
C         17.19883        18.67978         0.60120
C         18.40402         2.19157         0.97514
C         18.39046         3.56792         0.92908
C         19.65735         1.46683         0.92068
C         19.67048         4.34845         1.00396
C         18.80624         6.66464         0.70679
C         18.66235         7.88140        -0.01181
C         19.82349         5.76560         0.52310
C         19.89020         8.53829        -0.33828
C         18.60018        10.65384        -0.87003
C         18.62842        12.12169        -0.46383
C         19.89817         9.95028        -0.53097
C         19.81398        12.86835        -0.98670
C         18.67123        15.10429        -0.34338
C         18.51930        16.67844        -0.47061
C         19.79995        14.38910        -0.70876
C         19.72380        17.36016         0.26510
C         18.33742        19.37815         0.85300
C         19.65635        18.90161         0.36345
C         20.86200         2.09357         0.86168
C         20.96339         3.55293         0.99892
C         22.21750         4.23773         0.56888
C         21.00938         6.25555        -0.29495
C         21.10743         7.78855        -0.24801
C         22.25943         5.47953         0.05996
C         22.30127         8.51236        -0.28091
C         21.11313        10.66391        -0.52473
C         21.12132        12.12391        -0.71015
C         22.30421         9.91230        -0.36751
C         22.27946        12.82865        -0.87322
C         21.07814        14.95269        -1.13161
C         21.08612        17.14318        -0.39267
C         22.23795        14.22623        -1.19075
C         22.18400        17.81467         0.03064
C         20.81269        19.41095         1.20727
C         22.03215        18.87017         1.02461
O          2.44044         5.84657        -1.42311
O         17.77593         6.29816         1.58583
O         12.88623        12.59679         1.81386
O          7.86103         8.24754        -1.37922
O         16.04028        17.34874        -1.06430
O         21.20152        16.29848        -1.48808
O          9.66125         4.79027        -1.75819
O         16.97864        14.30346         1.44230
O         10.80944        10.05698         1.57156
O          2.82702        17.00439        -1.94405
O         13.40623        11.64266        -1.75518
O         11.35003         8.22305        -1.76278
O          5.32144        14.94382         0.99267
O          5.84429         6.77075         1.19190
O          2.90582        14.38421        -1.89311
O         11.63343        16.84393         1.41681
O         20.41540         4.09231         2.25566
O         15.38073         4.38899        -2.13009
O          9.89944        18.16051        -1.06614
O          4.72131         4.76448        -1.83416
O          3.78270        11.10178         1.63077
H          3.95546        10.30243         2.17099
O         16.07983        10.80173        -2.10298
H         15.14529        10.96131        -2.38376
O         11.16584         6.22386         1.28837
H         11.57295         5.37313         1.58399
O         15.97448         8.18166         1.61521
H         16.61305         7.58648         2.07815
O          8.75223        11.71942        -1.43926
H          7.86086        11.61086        -1.85368
O         13.80250        15.24448         1.72606
H         13.50360        14.41363         2.16627
O         18.61328        17.02755        -1.86045
H         17.70729        16.99047        -2.24086
O         13.28322         3.18524        -2.35603
H         14.12118         3.55018        -2.79028
O          7.02327        17.01553         1.39899
H          7.83018        17.18941         1.92723
O          9.79157        14.36539         1.97062
H         10.57526        13.89195         2.35482
O          6.20672         2.65816        -1.86723
H          5.95586         3.35003        -2.52122
O         16.10139        11.89517         1.40984
H         16.43832        12.71980         1.84175
O         12.74490         4.12855         1.13727
H         13.30064         3.34889         1.38105
O         20.73721         5.95173        -1.70265
H         20.52771         4.99692        -1.77630
O         17.12268        13.14030        -2.00910
H         16.94667        12.23443        -2.40187
O         11.74345        12.51820         2.69226
H         11.43520        11.57515         2.58059
O         19.73698        16.78973         1.58955
H         20.42575        17.25652         2.11058
O          6.20958        12.09337        -1.72795
H          5.36347        11.71175        -2.09409
O         15.04080         2.23519         1.87974
H         15.50665         1.69415         2.56526
O         18.51183        10.53778        -2.32496
H         19.17919        11.17682        -2.69402
O          7.13825        12.81792         1.74857
H          7.85399        13.36540         2.14390
O          6.52492        16.36904        -2.17497
H          6.26004        17.22927        -2.57933
O          3.29105         8.20537        -1.91200
H          2.67470         7.54106        -2.30044
O         13.82300         7.77478        -2.31740
H         13.14414         7.16155        -2.69514
O         19.74416        12.86709        -2.48398
H         18.87952        13.29651        -2.70343
O          6.20203         2.62866         1.77258
H          6.05469         1.90171         2.41446
O         13.39828        16.58608        -1.69674
H         14.21460        16.26775        -2.14607
O          4.85370        18.78581        -2.36574
H          4.02156        18.32076        -2.63632
O         12.06875         5.54618        -2.22777
H         12.46470         4.71313        -2.59959
O          3.55225        11.76036        -1.95186
H          3.28319        12.60362        -2.39585
O          8.75753         3.63617         1.50620
H          7.90740         3.36089         1.93582
O         16.11458        16.63343         2.22731
H         16.56219        15.85034         2.61650
O         15.01165        14.67253        -1.63625
H         15.74463        14.11745        -2.02101
O         16.53794         3.99020         2.32458
H         17.08173         4.61722         2.85023
O          8.42893        10.75516         2.11399
H          9.29213        10.50956         2.51898
O         17.01244         2.92491        -1.12470
H         16.70260         3.43918        -1.93321
O         17.01556         0.64861         2.21252
H         17.88716         0.65701         2.65869
O         17.66444        10.11645         1.18566
H         16.91618         9.70535         1.68805
O         17.22847         8.14293        -1.86108
H         17.65126         8.87416        -2.37295
O         19.82012        19.43461        -0.98369
H         19.34096        18.82893        -1.59902
H          0.31514         1.41904         1.06493
H          0.26231         3.87956         0.84032
H          2.45280         0.16956         0.75977
H          0.32528         5.82486         1.12518
H          0.35304         8.23104         1.17319
H          0.16925        10.26638         0.67337
H          0.28007        12.69942         0.58361
H          0.17202        14.62449         0.07172
H          0.28446        17.03271         0.14335
H          1.67740        19.14542         0.34778
H          4.85704         0.19323         0.51611
H          3.78782        20.34706         0.03945
H          7.30073         0.13711         0.12657
H          6.18996        20.42438        -0.48790
H          9.82116         0.11495        -0.31818
H          8.33823        20.36295         0.91591
H         12.29083         0.11081        -0.19101
H         11.26590        20.58883         0.77845
H         14.62959         0.13726         0.24171
H         13.57881        20.41281         0.81089
H         17.30312         0.53578         0.14651
H         15.92752        20.35344         1.22553
H         19.61422         0.37039         0.83058
H         18.26329        20.39427         1.27124
H         21.78151         1.51756         0.67989
H         23.15683         3.67840         0.70994
H         23.23072         5.89993        -0.24253
H         23.26760         7.99074        -0.22376
H         23.27607        10.42516        -0.35145
H         23.26400        12.34680        -0.79636
H         23.16828        14.73842        -1.46868
H         23.16517        17.62770        -0.42452
H         20.64815        20.25145         1.89668
H         22.91766        19.24318         1.55898
