         324
 CSIRO Nanostructure Databank - Neutral Graphene Oxide Data Set
C          1.36992         3.51387        -1.89491
C          0.19156         4.20235        -2.11765
C          1.27976         6.34048        -1.62283
C          0.14117         5.59999        -1.98141
C          1.24620         7.79067        -1.48099
C          0.05674         8.52044        -1.65360
C          1.19382        10.64219        -1.24853
C          0.02874         9.90557        -1.53046
C          1.17465        12.09514        -1.15754
C         -0.02088        12.82178        -1.26122
C          1.15515        14.95010        -1.08723
C         -0.02437        14.21922        -1.21298
C          1.03560        16.46962        -1.17171
C          0.06348        17.06577        -0.18220
C          1.33051        19.17093        -0.00110
C          0.16807        18.35186         0.24762
C          1.52965        20.53612         0.65311
C          0.25864        21.21849         1.08282
C          1.13844        23.49421         0.55816
C          0.12532        22.55005         1.10440
C          1.31292        24.76886         1.30400
C          0.81407        24.96415         2.61720
C          1.93564        27.13700         2.76157
C          1.03824        26.16505         3.27576
C          2.17379        28.38060         3.43216
C          3.75421         3.52606        -1.27977
C          2.55158         4.21749        -1.52540
C          3.69025         6.36008        -1.03623
C          2.50729         5.64716        -1.39631
C          3.66027         7.79505        -0.93139
C          2.44297         8.50383        -1.16192
C          3.62626        10.65606        -0.81063
C          2.42024         9.93539        -1.06983
C          3.62345        12.09459        -0.80310
C          2.40019        12.81098        -0.98206
C          3.64432        14.94083        -0.91512
C          2.39830        14.24892        -0.99434
C          3.67898        16.40814        -1.07672
C          2.37946        17.18126        -1.11780
C          3.66658        19.26774        -0.73288
C          2.43268        18.57538        -0.62237
C          3.58467        20.73268        -0.73027
C          2.40564        21.40097        -0.22531
C          3.61104        23.63781        -0.44783
C          2.32435        22.87348        -0.26687
C          3.62975        25.01295        -0.47795
C          2.09026        25.80384         0.77043
C          3.78116        27.64918         1.15260
C          2.60621        26.87979         1.52899
C          3.97328        28.88192         1.85693
C          3.08887        29.26136         2.92593
C          6.12528         3.51904        -0.61549
C          4.92398         4.21447        -0.88920
C          6.06955         6.34268        -0.35444
C          4.89025         5.64840        -0.77566
C          6.04924         7.79279        -0.30517
C          4.84861         8.50833        -0.60068
C          6.04175        10.65660        -0.28563
C          4.83536         9.94381        -0.56955
C          6.05651        12.10638        -0.32521
C          4.84161        12.80680        -0.60549
C          6.08834        14.95808        -0.52383
C          4.84968        14.24060        -0.68240
C          6.07336        16.39869        -0.50797
C          4.91929        17.13363        -0.73476
C          6.12985        19.31353        -0.70648
C          4.91495        18.58549        -0.77477
C          6.17412        20.74711        -0.65695
C          4.91254        21.51734        -0.75690
C          6.10281        23.62938        -0.39114
C          4.89973        22.95924        -0.43056
C          6.16652        25.09243        -0.47365
C          4.83492        25.85975        -0.39464
C          6.09418        27.85562         0.31827
C          4.84757        27.16879         0.31315
C          6.18393        29.18916         0.86092
C          5.09212        29.69118         1.58612
C          8.49661         3.49889         0.06266
C          7.28011         4.19927        -0.17184
C          8.35175         6.31788         0.71231
C          7.22432         5.62454        -0.01136
C          8.45098         7.78636         0.36042
C          7.23404         8.50457        -0.01185
C          8.44137        10.64232         0.36716
C          7.21740         9.92175        -0.01988
C          8.47600        12.14117         0.29755
C          7.25560        12.84066        -0.14149
C          8.57759        14.96018        -0.23096
C          7.29483        14.25151        -0.28168
C          8.58218        16.34580        -0.33559
C          7.32987        17.10361        -0.20918
C          8.66578        19.29191        -0.55986
C          7.36927        18.60945        -0.34794
C          8.64294        20.76619        -0.94215
C          7.36003        21.44843        -0.54699
C          8.65345        23.63374        -0.28893
C          7.36795        22.87377        -0.04089
C          8.66703        25.06745        -0.19974
C          7.41384        25.80932        -0.17257
C          8.57419        27.98882        -0.07648
C          7.33319        27.19285        -0.03365
C          8.60040        29.39443         0.38701
C          7.39476        29.95233         0.80750
C         10.95650         3.49770         0.42146
C          9.70523         4.18111         0.36991
C         10.87475         6.26969         0.84085
C          9.67556         5.58869         0.60486
C         10.83837         7.74398         1.03642
C          9.63778         8.43776         0.51742
C         10.99435        10.65198         0.56538
C          9.73299         9.89600         0.29686
C         10.93766        12.13091         0.60056
C          9.79386        12.82401         0.26502
C         11.05706        14.91577         0.00670
C          9.82495        14.24501        -0.01071
C         11.11045        16.32736        -0.40870
C          9.81522        17.09769        -0.56008
C         11.13902        19.28307        -0.71562
C          9.82938        18.58740        -0.54763
C         11.16333        20.80499        -0.63617
C          9.87933        21.50773        -0.49322
C         11.18433        23.60040        -0.34894
C          9.86723        22.89522        -0.33492
C         11.18409        25.09619        -0.15780
C          9.87520        25.76542        -0.06283
C         11.07016        27.94264         0.47429
C          9.88002        27.23116        -0.06888
C         11.08591        29.42271         0.32091
C          9.83486        30.09216         0.37967
C         13.50291         3.48981         0.68830
C         12.15340         4.18838         0.60907
C         13.36978         6.38218         0.80649
C         12.11151         5.59045         0.78308
C         13.36648         7.66962         1.64456
C         12.10296         8.49785         1.33605
C         13.42715        10.59894         1.04454
C         12.22986         9.94513         1.00080
C         13.50540        12.07785         0.99631
C         12.20470        12.84936         0.81476
C         13.53299        14.84952         0.30148
C         12.28125        14.24202         0.35646
C         13.56705        16.32155         0.20690
C         12.32704        17.10720        -0.07241
C         13.56769        19.22792        -0.21377
C         12.39261        18.55723        -0.40075
C         13.59143        20.67703         0.08650
C         12.40066        21.48300        -0.19174
C         13.64868        23.58999         0.24381
C         12.43015        22.86033        -0.02672
C         13.61121        25.02567         0.42965
C         12.42350        25.74031         0.31822
C         13.59309        27.95986         0.51918
C         12.36010        27.18853         0.63712
C         13.56655        29.34390         0.26786
C         12.31779        30.06714         0.23965
C         15.94113         3.59956        -0.05819
C         14.59216         4.27356        -0.08903
C         15.94759         6.31211         0.87397
C         14.65813         5.73192         0.40210
C         15.90834         7.57028         1.72878
C         14.67824         8.39086         1.33547
C         15.98144        10.63328         1.15465
C         14.71578         9.86968         1.10497
C         16.02336        11.98858         0.83274
C         14.79011        12.73631         0.68989
C         16.03028        14.82644         0.32103
C         14.78400        14.12853         0.44109
C         16.09045        16.22842         0.18773
C         14.85447        16.98500        -0.09112
C         16.07300        19.16534         0.22843
C         14.85033        18.48470        -0.22459
C         16.17209        20.64556         0.11495
C         14.89535        21.40441         0.34988
C         16.12933        23.55268         0.29766
C         14.90219        22.88685         0.27135
C         16.18595        25.00190         0.56389
C         14.87604        25.74588         0.78111
C         16.07271        27.90579         0.08675
C         14.89855        27.29553         0.83337
C         15.98505        29.28788        -0.35453
C         14.78037        30.00024        -0.08900
C         18.39099         3.59225        -0.00654
C         17.11477         4.25873         0.17891
C         18.40819         6.25466         1.00718
C         17.12972         5.63446         0.69459
C         18.46213         7.60999         1.58678
C         17.19030         8.40266         1.70858
C         18.52639        10.56676         1.21112
C         17.22309         9.89737         1.45909
C         18.51862        11.97113         0.84425
C         17.31753        12.65307         0.67330
C         18.60796        14.84697         0.10912
C         17.30513        14.07368         0.24444
C         18.61925        16.37231         0.11493
C         17.27591        16.97523         0.30591
C         19.06733        19.47522         0.57207
C         17.12341        18.36618         0.60373
C         18.85118        20.79144         0.14944
C         17.47954        21.39333         0.09577
C         18.67286        23.66293        -0.20029
C         17.42155        22.86771         0.31111
C         18.46078        25.09056        -0.53909
C         17.38000        25.75050         0.08874
C         18.47902        28.00745        -1.45825
C         17.25624        27.18335         0.06569
C         17.86617        29.14954        -2.02702
C         16.87482        29.87780        -1.29045
C         19.56523         4.24419         0.19785
C         20.84302         6.34375         0.64060
C         19.59684         5.61163         0.67441
C         20.91598         7.67437         0.91058
C         19.77353         8.38784         1.50439
C         20.96254        10.60740         1.46257
C         19.71748         9.87593         1.40029
C         21.02110        11.93294         1.19287
C         19.84372        12.63548         0.64634
C         21.09049        14.96197         0.68185
C         19.91154        14.12827         0.33070
C         21.11986        16.30459         0.56582
C         19.95301        17.13103         0.14951
C         21.14618        19.31798        -0.54491
C         20.11799        18.64993         0.15281
C         21.08080        20.69900        -0.77595
C         19.91994        21.46074        -0.49063
C         20.55301        23.51586        -1.75952
C         19.75542        22.87767        -0.83169
C         20.32414        24.86551        -2.12283
C         19.32088        25.65529        -1.56867
C         19.26747        27.22416        -3.56909
C         19.05895        26.96629        -2.19851
C         18.87582        28.45297        -4.12635
C         18.16054        29.39804        -3.39393
O         19.32008         7.77308         2.75620
O         20.14672        13.13702        -0.71283
O         15.63235        25.24036         1.92756
O         19.33128        16.77509        -1.12520
O         18.46506        27.89513        -0.06336
O         18.42437        23.37168         1.21564
O          1.15397        23.50356        -0.88861
O         11.11034         8.25567         2.40424
O         12.78861        16.91900         1.31636
O         11.26677        20.08454        -1.93926
O          4.17447        21.29060        -1.96527
O         10.58262        16.59357        -1.73416
O         14.93314        17.61985        -1.41897
O         14.12520        20.89156         1.47237
O         17.93862        14.32513        -1.07304
O         11.47343        27.49972         1.81041
O          8.28369        11.43213         1.59072
O          5.55933        25.73201        -1.65680
O         16.79109        21.04616        -1.16957
O         11.35410        24.47284        -1.50481
O         14.76963         8.87028        -0.02544
O         13.91647         6.60755        -0.53930
O          2.43833        25.73541        -0.58687
O          9.36164        27.80591        -1.31168
O         18.11636        18.91402         1.41843
O          3.11425        16.93422        -2.35516
O          7.28721        17.96640         0.99197
O         12.79684        12.66909         2.15496
O         17.19178         9.31195         2.84606
O         10.60296        10.22542        -0.83765
O         15.80779         7.08662         3.08048
H         16.07997         7.81699         3.67919
O          0.47379        16.75614        -2.48762
H          1.22967        16.74485        -3.11819
O         13.34373         7.32969         3.03153
H         12.40798         7.40896         3.33767
O          8.64670        20.77693        -2.40671
H          9.55563        20.50603        -2.68861
O         14.18548         4.26138        -1.47712
H         13.92205         5.18629        -1.70472
O          7.28908        22.72288         1.43653
H          8.09832        22.25219         1.73117
O         13.91440         3.41810         2.05569
H         13.19656         3.01368         2.58329
O          7.98303         6.28344         2.13666
H          7.87480         5.34211         2.38898
O          2.30815        20.30313         1.89636
H          1.79793        19.67581         2.45172
O         15.12284        27.67702         2.22867
H         15.55244        26.90025         2.66558
H          1.40699         2.42002        -1.99751
H         -0.71898         3.65701        -2.40248
H         -0.81547         6.10600        -2.16694
H         -0.88175         8.00153        -1.88928
H         -0.93043        10.41928        -1.67643
H         -0.98057        12.30303        -1.38352
H         -0.97924        14.75454        -1.30844
H         -0.82405        16.47688         0.09223
H         -0.63389        18.75343         0.88471
H         -0.54673        20.60000         1.50642
H         -0.80198        22.99425         1.50020
H          0.19673        24.18829         3.09096
H          0.55997        26.35027         4.24781
H          1.58988        28.62651         4.33032
H          3.77855         2.43059        -1.37794
H          3.25351        30.23320         3.41364
H          6.15513         2.42630        -0.73934
H          5.17983        30.66953         2.08157
H          8.52143         2.41081        -0.09595
H          7.37916        30.97842         1.20454
H         10.97265         2.40800         0.26604
H          9.82663        31.18534         0.50786
H         13.41314         2.45176         0.25874
H         12.35174        31.15913         0.11076
H         15.97438         2.55343        -0.40072
H         14.72975        31.06362        -0.37041
H         18.38544         2.55256        -0.36525
H         16.57513        30.85872        -1.69498
H         20.52308         3.74049         0.00181
H         21.72761         5.82138         0.24643
H         21.83991         8.22902         0.69181
H         21.86800        10.07470         1.78536
H         21.98303        12.46130         1.23916
H         22.01020        14.44187         0.98823
H         22.04421        16.84126         0.82972
H         22.01704        18.75578        -0.91109
H         21.93398        21.18693        -1.26818
H         21.35956        22.96643        -2.26415
H         20.96035        25.29679        -2.90823
H         19.72384        26.46156        -4.21519
H         19.07207        28.63760        -5.19150
H         17.76277        30.29644        -3.88620
