         344
 CSIRO Nanostructure Databank - Neutral Graphene Oxide Data Set
C          1.36645         1.99914         0.78807
C          1.33441         3.42314         0.61585
C          2.54922         1.32974         0.94147
C          2.46909         4.19399         0.71117
C          1.24820         6.36332         0.48280
C          1.23568         7.74889         0.42368
C          2.45592         5.64278         0.58075
C          2.43507         8.49614         0.50511
C          1.17314        10.70170         0.53739
C          1.14062        12.04306         0.71989
C          2.42396         9.95925         0.46091
C          2.41026        12.80241         0.82228
C          1.23664        15.10019         1.26259
C          1.24439        16.45019         1.05737
C          2.45532        14.28203         1.09251
C          2.39672        17.15299         0.56564
C          2.48690        18.53993         0.60413
C          3.79874         2.04733         0.94190
C          3.76323         3.54437         1.16217
C          4.99846         1.39461         0.84120
C          4.98980         4.25107         0.63256
C          3.68608         6.37497         0.58327
C          3.65868         7.79383         0.58863
C          4.93990         5.66184         0.48747
C          4.94182         8.55355         0.81963
C          3.61634        10.66141         0.32861
C          3.56056        12.15543         0.07045
C          4.88674         9.99444         0.32679
C          4.88444        12.86757         0.20632
C          3.74466        15.07743         0.88170
C          3.48474        16.29612        -0.03521
C          4.92036        14.27133         0.36003
C          4.79658        17.08315        -0.44420
C          3.65854        19.23936         0.26145
C          4.83880        18.57209        -0.11563
C          6.23886         2.11549         0.65226
C          6.17602         3.54169         0.43903
C          7.45476         1.44834         0.61243
C          7.36454         4.21035        -0.20163
C          6.16343         6.39842         0.25304
C          6.15811         7.78880         0.35743
C          7.39841         5.69786         0.00835
C          7.41181         8.51927         0.23073
C          6.05150        10.70472         0.08326
C          6.07462        12.15139        -0.04175
C          7.36320        10.01275         0.14260
C          7.31904        12.85488        -0.19758
C          6.11567        14.97025         0.11916
C          6.10180        16.48097         0.16900
C          7.32238        14.28286        -0.14884
C          7.34240        17.09038        -0.50431
C          6.06046        19.25082        -0.24143
C          7.33241        18.59845        -0.34795
C          8.69895         2.15079         0.42064
C          8.67666         3.53834         0.11329
C          9.93346         1.48890         0.55892
C          9.88532         4.24925        -0.05646
C          8.61496         6.38244        -0.15236
C          8.64072         7.81060        -0.16327
C          9.86984         5.67195        -0.26017
C          9.82226         8.52195        -0.43308
C          8.49418        10.67078        -0.60656
C          8.55287        12.15005        -0.34847
C          9.80796         9.95123        -0.48562
C          9.79225        12.79938        -0.29840
C          8.57536        15.01052        -0.14822
C          8.58201        16.37699        -0.01035
C          9.85226        14.28992        -0.47970
C          9.80102        17.12570         0.30331
C          8.52986        19.28091        -0.38490
C          9.81031        18.61566        -0.04968
C         11.15502         2.16714         0.33891
C         11.13260         3.56089         0.00859
C         12.40611         1.51847         0.48091
C         12.35373         4.24207        -0.26557
C         11.08583         6.37614        -0.40689
C         11.08711         7.81538        -0.53747
C         12.32906         5.66722        -0.45460
C         12.28182         8.51907        -0.70702
C         10.99897        10.67735        -0.53390
C         11.00656        12.07737        -0.34525
C         12.24696         9.99730        -1.02540
C         12.28168        12.71876         0.14893
C         11.11337        14.92493         0.04673
C         11.10356        16.35747         0.54326
C         12.27417        14.23005         0.08133
C         12.35322        17.09336         0.11464
C         11.10198        19.20756        -0.35182
C         12.31840        18.50165        -0.21033
C         13.62353         2.13388         0.12837
C         13.57904         3.51177        -0.34971
C         14.83807         1.43384         0.44677
C         14.74502         4.24402        -0.74619
C         13.54146         6.39287        -0.63317
C         13.53631         7.82978        -0.74917
C         14.75587         5.67660        -0.79161
C         14.75669         8.52440        -0.88663
C         13.53143        10.73855        -0.73501
C         13.55056        12.06123        -0.35920
C         14.78263        10.01741        -1.17976
C         14.78818        12.80761        -0.23395
C         13.55302        14.91723         0.51954
C         13.55196        16.38940         0.14275
C         14.80994        14.18452         0.07668
C         14.79273        17.05910        -0.05992
C         13.55459        19.16289        -0.40367
C         14.78572        18.48055        -0.28026
C         16.05669         1.69573        -0.21296
C         15.94061         3.60041        -1.12510
C         17.39091         1.56147         0.15796
C         17.20728         4.23403        -1.21921
C         15.97963         6.37068        -1.03613
C         15.97520         7.79790        -0.97031
C         17.21108         5.67926        -1.24973
C         17.22415         8.48144        -1.02472
C         16.03536        10.70578        -0.72820
C         16.04421        12.08080        -0.41557
C         17.25812         9.87212        -0.45765
C         17.26722        12.74466        -0.16037
C         16.02438        14.91516         0.09155
C         16.02957        16.33958         0.00078
C         17.32772        14.18200         0.28461
C         17.25982        17.06360        -0.13107
C         16.01421        19.17809        -0.34412
C         17.24781        18.49787        -0.25139
C         18.47990         2.16836        -0.60213
C         18.39800         3.47866        -1.21984
C         19.69065         1.49141        -0.59161
C         19.60716         4.15727        -1.84432
C         18.42654         6.38470        -1.43344
C         18.40554         7.80521        -1.31132
C         19.67924         5.66223        -1.54567
C         19.59696         8.61195        -1.76145
C         18.54517        10.60759        -0.68995
C         18.53036        12.01044        -0.23916
C         19.69999         9.96721        -1.07933
C         19.79134        12.81264        -0.43320
C         18.54126        14.94399        -0.22511
C         18.50850        16.37674        -0.23137
C         19.73604        14.28765        -0.48736
C         19.72291        17.10392        -0.35422
C         18.47132        19.21257        -0.29554
C         19.71253        18.54519        -0.30705
C         20.90783         1.91889        -1.35126
C         20.94114         3.42931        -1.62777
C         22.10254         1.42128        -0.58837
C         22.18362         4.21515        -1.33672
C         20.88941         6.35304        -1.53538
C         20.90785         7.82626        -1.76047
C         22.16128         5.69908        -1.34140
C         22.19957         8.57053        -1.62771
C         20.95879        10.66823        -1.15263
C         20.92314        12.13351        -1.10686
C         22.18411        10.03995        -1.40750
C         22.22291        12.90675        -1.19681
C         20.97479        15.00013        -0.63670
C         20.96717        16.41928        -0.48535
C         22.21042        14.32319        -0.79744
C         22.19916        17.12558        -0.44741
C         20.94362        19.24338        -0.27247
C         22.18165        18.56070        -0.28639
C         23.23575         2.17163        -0.30245
C         23.32910         3.56155        -0.67246
C         24.35804         1.56185         0.34382
C         24.49692         4.28804        -0.43448
C         23.36770         6.38651        -1.18080
C         23.44288         7.83638        -1.28946
C         24.58858         5.68739        -0.80476
C         24.62937         8.51272        -1.24262
C         23.42108        10.73972        -1.35295
C         23.46824        12.13442        -1.15178
C         24.71379         9.98437        -1.57290
C         24.68290        12.82184        -0.86781
C         23.44149        15.00049        -0.68427
C         23.43684        16.42263        -0.49836
C         24.67969        14.25703        -0.67367
C         24.67324        17.11955        -0.34925
C         23.40327        19.23784        -0.10573
C         24.64686        18.55142        -0.08820
C         25.54324         2.26036         0.54092
C         25.64142         3.64045         0.13713
C         26.69984         1.61354         1.09403
C         26.85889         4.33776         0.26734
C         25.80923         6.35591        -0.73149
C         25.92619         7.74377        -1.33677
C         26.97932         5.69368        -0.20741
C         27.14843         8.51107        -0.87127
C         25.91136        10.67132        -0.93247
C         25.89474        12.04812        -0.75339
C         27.14244         9.89974        -0.75236
C         27.19780        12.81713        -0.73444
C         25.87393        14.96562        -0.39511
C         25.87737        16.37598        -0.27891
C         27.09810        14.16539        -0.00775
C         27.16291        17.09471        -0.10923
C         25.80374        19.22929         0.31142
C         27.11415        18.61017         0.25218
C         27.89124         2.28558         1.23607
C         27.99872         3.67660         0.83495
C         29.09119         1.59649         1.69023
C         29.21552         4.35218         0.94921
C         28.23111         6.33476        -0.15329
C         28.41721         7.66436        -0.86051
C         29.36215         5.66737         0.40811
C         29.66294         8.41099        -0.40394
C         28.32522        10.62398        -0.31566
C         28.34513        12.01391        -0.15736
C         29.60434         9.90771        -0.14365
C         29.43651        12.67531         0.47231
C         28.43393        14.91308        -0.12546
C         28.34741        16.34208         0.36375
C         29.51370        14.09535         0.55771
C         29.41685        16.97411         0.92025
C         28.27370        19.17369         0.93033
C         29.43210        18.42430         1.13231
C         30.25450         2.25040         1.87039
C         30.33555         3.75057         1.76940
C         31.68402         4.24274         1.33236
C         30.65728         6.27702         0.44117
C         30.79298         7.67509         0.18691
C         31.80859         5.46915         0.77627
C         31.91148         8.40330         0.60074
C         30.67725        10.50966         0.64694
C         30.37102        11.83127         1.31378
C         31.84150         9.79796         0.84400
C         31.58164        12.57557         1.79334
C         30.56521        14.72341         1.22594
C         30.54951        16.19700         1.55875
C         31.62159        13.93122         1.79641
C         31.86391        16.91646         1.39098
C         30.66460        19.03316         1.49110
C         31.86937        18.28560         1.48003
O         21.88104         3.68786        -2.72363
O          2.68040        13.29268         2.17427
O         27.43298        18.08546        -1.11145
O          7.67497         9.45135         1.44443
O         30.09144         9.35009        -1.43998
O         15.87115         2.27463        -1.50561
O         21.35239        12.71313        -2.37537
O         19.48761        12.27629         0.90064
O         21.70430         8.16005        -2.96203
O          9.65217        18.11001         1.37749
O         26.10183         7.53213        -2.79190
H         27.04876         7.24805        -2.90979
O          3.20001        12.34124        -1.34819
H          3.82784        11.81229        -1.88571
O         30.26942        16.23303         3.00976
H         30.29099        17.17669         3.27891
O         24.99286        10.04312        -3.01480
H         25.41943         9.18332        -3.26433
O         11.21149        16.21748         2.00535
H         10.82584        17.04634         2.38267
O          4.06850        15.56301         2.21078
H          3.95344        14.79918         2.82098
O         28.69603         7.30404        -2.26495
H         29.20932         8.06214        -2.63438
O          3.80019         3.73121         2.62099
H          3.00361         3.29351         2.98912
O          9.94588        14.45605        -1.94987
H         10.67030        13.87537        -2.26786
O         27.46228        13.06183        -2.13582
H         27.35424        12.21530        -2.61754
O         29.59950        11.47187         2.52764
H         29.31323        12.31479         2.94194
O         20.88481         1.24273        -2.64505
H         21.49505         1.75105        -3.22634
O         19.28560         8.93720        -3.14652
H         20.14836         8.95320        -3.62862
O          2.89852        15.71346        -1.23741
H          3.28513        14.82089        -1.38491
O         19.34167         4.10925        -3.27671
H         20.21383         4.22484        -3.72091
O         17.22068         9.62634         1.01070
H         17.28657        10.50169         1.45162
O         17.54256        14.13266         1.75071
H         18.33333        13.55497         1.88525
O         28.77198        15.05227        -1.52306
H         29.53564        15.66047        -1.59802
O          5.10403         8.66392         2.27842
H          6.01007         9.03353         2.42369
O          7.17388         4.01901        -1.66725
H          7.21004         3.05278        -1.83521
O         13.57742        14.84555         1.98505
H         12.79045        15.36893         2.29465
O         26.93374        13.88734         1.41071
H         26.08740        13.40685         1.53038
O         14.79448        10.08151        -2.67781
H         15.08729        10.98398        -2.92970
O          6.22569        16.92490         1.53428
H          5.50812        16.50485         2.07159
O          7.41250        16.83498        -1.92703
H          6.54659        17.08945        -2.32745
O          4.85975        17.02422        -1.88784
H          3.97323        16.70842        -2.19854
O         30.14499         4.25399         3.14569
H         29.26543         3.94109         3.44672
O         12.09161        10.06736        -2.49699
H         12.98569         9.87049        -2.88104
O         12.27982        12.44242         1.59284
H         12.86087        13.12699         2.01677
O          8.10239        10.52677        -2.02365
H          8.85370        10.84114        -2.57136
H          0.41966         1.44359         0.73795
H          0.36470         3.88185         0.37596
H          2.56907         0.23050         0.98140
H          0.28865         5.82896         0.46307
H          0.26753         8.25867         0.33576
H          0.22314        10.15053         0.51997
H          0.18478        12.55978         0.88644
H          0.33571        14.60831         1.65516
H          0.34597        17.03724         1.30300
H          1.62818        19.10966         0.99073
H          5.02552         0.29397         0.81042
H          3.68224        20.33175         0.39124
H          7.48498         0.36346         0.79180
H          6.05887        20.34361        -0.09131
H          9.94877         0.42135         0.82475
H          8.53617        20.38199        -0.44183
H         12.42328         0.47899         0.84110
H         11.12902        20.22817        -0.76128
H         14.79364         0.65938         1.22664
H         13.55883        20.24400        -0.60606
H         17.66127         0.92480         1.01256
H         16.00832        20.27084        -0.47065
H         19.74148         0.52116        -0.07466
H         18.44723        20.31195        -0.32770
H         22.09588         0.35563        -0.31308
H         20.93650        20.34053        -0.19204
H         24.29075         0.50447         0.63923
H         23.39609        20.32456         0.06503
H         26.63104         0.55078         1.37058
H         25.71694        20.24586         0.72348
H         29.02894         0.50864         1.84645
H         28.23807        20.22420         1.25520
H         31.15180         1.70919         2.20674
H         32.57172         3.63506         1.56145
H         32.80808         5.85977         0.53503
H         32.79984         7.86903         0.96504
H         32.69343        10.26188         1.36024
H         32.38302        12.00983         2.28918
H         32.47115        14.44915         2.26489
H         32.80849        16.35503         1.37450
H         30.70694        20.12626         1.59762
H         32.82560        18.82867         1.51834
