         661
 CSIRO Nanostructure Databank - Neutral Graphene Oxide Data Set
C          6.29691        31.79986        -1.74001
C          6.32388        33.14889        -1.75963
C          8.59563        27.53167        -1.08323
C          8.53696        28.90286        -0.31951
C          7.35838        29.74885        -0.69530
C          8.65673        31.82024        -0.94693
C          7.54004        30.95872        -1.55390
C          8.75908        33.25088        -1.27876
C          7.54224        33.93784        -1.57467
C          8.72771        36.09375        -1.38848
C          7.53023        35.32552        -1.59301
C          8.65216        37.47085        -1.23043
C         10.83115        23.23340         0.19763
C         10.89381        24.59446        -0.04701
C          9.75618        25.35043        -0.51599
C         11.03097        27.43166        -0.43838
C          9.80649        26.72496        -0.65773
C         11.03859        28.86983        -0.53208
C          9.87119        29.60384        -0.52392
C         11.17843        31.80061        -0.62969
C          9.89228        31.07561        -0.52662
C         11.19371        33.20881        -0.91314
C          9.99003        33.93478        -1.16353
C         11.17007        36.10493        -1.01869
C         10.00413        35.39161        -1.26045
C         11.20470        37.57285        -1.00724
C          9.84310        38.31076        -1.11906
C         10.92303        40.29139        -0.11493
C          9.78985        39.66073        -0.55201
C         10.84606        41.70317         0.43814
C         13.08650        18.80930         1.15728
C         13.13549        20.32359         0.98599
C         12.01464        21.02311         0.70570
C         13.28123        23.19200         0.75779
C         11.93999        22.51833         0.92368
C         13.31380        24.60154         0.54864
C         12.13690        25.31331         0.17251
C         13.44143        27.39440         0.21064
C         12.20846        26.70800        -0.06224
C         13.57377        28.82028        -0.14629
C         12.33590        29.58385        -0.55360
C         13.66127        31.71252        -0.46056
C         12.34314        31.05797        -0.52792
C         13.74769        33.19532        -0.63268
C         12.48353        33.90376        -1.01883
C         13.62490        36.11471        -0.33066
C         12.47597        35.42767        -0.94603
C         13.53530        37.50525        -0.02764
C         12.32154        38.26208        -0.32842
C         13.26385        40.34143         0.77684
C         12.18914        39.59933         0.00159
C         13.35877        41.78720         0.31871
C         12.12973        42.46624         0.18845
C         13.31324        44.55403        -0.34640
C         12.12101        43.83343        -0.06320
C         13.16864        45.99299        -0.45234
C         15.67010        14.60246        -0.11962
C         15.61095        16.07251         0.00732
C         14.37786        16.79296         0.42732
C         15.66354        18.78480         1.13432
C         14.37970        18.09029         0.82210
C         15.71052        20.28001         1.31688
C         14.40832        21.04396         1.27765
C         15.73268        23.17056         0.98735
C         14.46434        22.49691         0.98751
C         15.76008        24.58278         0.93691
C         14.53922        25.29454         0.75527
C         15.74481        27.43202         1.27399
C         14.55498        26.71701         0.68749
C         15.81417        28.89388         0.92307
C         14.76832        29.54430         0.35606
C         15.93805        31.79851         0.69662
C         14.71446        31.03048         0.34675
C         16.03079        33.25804         0.42508
C         14.85012        33.96577        -0.01617
C         15.86390        36.07572         0.76977
C         14.75869        35.35989         0.09730
C         15.91994        37.53777         0.64521
C         14.67278        38.19449         0.44709
C         15.88502        40.38851         0.71005
C         14.60343        39.62635         0.78122
C         15.86047        41.83400         0.39291
C         14.57147        42.48754         0.11928
C         15.92309        44.34001        -0.77063
C         14.54993        43.83964        -0.32118
C         15.99988        45.77877        -1.17642
C         14.10181        46.83859        -1.05510
C         15.64186        48.82053        -0.97004
C         14.36870        48.18826        -0.77355
C         15.70238        50.21870        -0.80109
C         18.15954        10.42193        -0.49928
C         18.11110        11.77517        -0.07356
C         16.91117        12.49955        -0.16099
C         18.08005        14.62074         0.61365
C         16.84378        13.90116         0.08238
C         18.22755        15.99612        -0.05732
C         16.91357        16.78749         0.06965
C         18.17726        18.87860         0.64436
C         16.93762        18.09257         0.80085
C         18.15481        20.27056         0.69353
C         16.96737        21.00944         0.98747
C         18.20484        23.16816         0.86793
C         16.97213        22.42906         0.96964
C         18.24490        24.56083         0.89259
C         17.01701        25.31460         0.96166
C         18.29038        27.44922         1.15568
C         17.04723        26.70282         1.05737
C         18.30245        28.83173         1.30436
C         17.02463        29.63298         1.46005
C         18.42910        31.73120         1.17520
C         17.20385        30.97667         0.73146
C         18.34169        33.20837         1.46031
C         17.19255        33.90548         0.78532
C         18.41323        36.11187         1.17607
C         17.15964        35.35102         1.03823
C         18.35280        37.50724         1.11146
C         17.13744        38.21281         0.81644
C         18.35201        40.47527         0.93498
C         17.18172        39.66562         0.39704
C         18.30301        41.84417         0.81811
C         17.05459        42.50924         0.44151
C         18.29506        44.65039        -0.08904
C         16.99249        44.00654         0.27972
C         18.23515        46.15731        -0.17768
C         16.98761        46.66334        -0.87333
C         18.11165        48.82844        -1.17946
C         16.89735        48.10123        -1.10099
C         18.15638        50.23145        -1.02573
C         16.92090        50.93685        -0.78287
C         18.17003        53.04284        -0.47091
C         16.94887        52.31440        -0.50403
C         18.16195        54.40659        -0.21623
C         20.68409         6.34728        -1.68169
C         20.63654         7.68847        -1.28594
C         19.39508         8.37656        -1.11731
C         20.60124        10.24342        -0.03943
C         19.35206         9.67685        -0.60898
C         20.55836        11.64874         0.49991
C         19.33687        12.46732         0.31793
C         20.63812        14.54476         0.70832
C         19.37349        13.82985         0.50500
C         20.64090        16.00198         0.73121
C         19.42506        16.74542         0.49340
C         20.62226        18.93694         0.91431
C         19.39460        18.12956         0.59979
C         20.66904        20.22072         0.05827
C         19.33283        21.04943         0.13205
C         20.68313        23.18784         0.36900
C         19.49499        22.37036         0.90988
C         20.70431        24.59168         0.91229
C         19.51232        25.29948         0.96198
C         20.79233        27.44821         1.16695
C         19.54322        26.72852         1.12184
C         20.84041        28.85239         1.29789
C         19.57213        29.56791         1.66591
C         20.89376        31.75627         1.14080
C         19.58127        31.04541         1.32172
C         20.86417        33.24198         1.45724
C         19.65941        33.95532         1.33459
C         20.89293        36.07506         1.50309
C         19.65792        35.38138         1.34770
C         20.85722        37.54425         1.76602
C         19.55031        38.26825         1.54235
C         20.86853        40.51137         1.44773
C         19.54973        39.77667         1.45907
C         20.86017        41.99953         1.21214
C         19.51714        42.68743         1.05397
C         20.82016        44.77604         0.18249
C         19.50840        44.11936         0.55269
C         20.77581        46.10530        -0.58944
C         19.44512        46.66866        -0.92176
C         20.67102        48.81909        -1.41076
C         19.38767        48.10609        -1.38583
C         20.65331        50.23262        -1.21534
C         19.40666        50.93274        -1.01852
C         20.64735        53.01871        -0.62219
C         19.42445        52.32775        -0.72505
C         20.65701        54.42517        -0.06378
C         19.39419        55.25121        -0.39565
C         20.74002        57.17518         0.66269
C         19.37647        56.51175         0.50348
C         20.77787        58.46179         1.19753
C         23.15729         3.61923        -2.39138
C         21.94839         4.26095        -2.15280
C         23.14441         6.37654        -1.90509
C         21.91893         5.65396        -1.89764
C         23.11059         7.82476        -1.62594
C         21.87491         8.41617        -1.09188
C         23.14120        10.33103        -0.18288
C         21.90246         9.65776        -0.45499
C         23.16530        11.63365         0.51826
C         21.84872        12.35929         0.77294
C         23.13324        14.48167         1.04869
C         21.83243        13.83006         0.80699
C         23.12201        16.00252         1.08249
C         21.84774        16.71383         0.88831
C         23.10329        18.82491         0.72846
C         21.89397        18.13701         0.78746
C         23.12836        20.27362         0.56359
C         21.91980        21.00611         0.44346
C         23.19035        23.06439         0.68707
C         21.95688        22.40180         0.52953
C         23.25098        24.48070         1.08518
C         21.96924        25.26752         1.20994
C         23.28173        27.38126         1.22150
C         22.03830        26.73237         1.15314
C         23.34689        28.82488         1.37229
C         22.08411        29.56585         1.40354
C         23.34998        31.67236         1.87381
C         22.09318        30.95671         1.58282
C         23.33999        33.19981         1.89811
C         22.07964        33.94334         1.61919
C         23.39205        36.09252         1.95264
C         22.09242        35.35272         1.64099
C         23.33485        37.49355         1.39664
C         22.18864        38.34359         1.87898
C         23.28129        40.37099         0.83935
C         22.13925        39.75495         1.27901
C         23.32410        41.78368         0.42672
C         22.13669        42.64935         0.72019
C         23.10263        44.38480        -0.80433
C         22.02389        43.95989         0.07002
C         23.02177        45.70778        -1.59385
C         21.90703        46.65108        -1.38490
C         23.09983        48.88184        -1.68246
C         21.88462        48.07445        -1.57780
C         23.12153        50.25751        -1.30251
C         21.87618        50.96173        -1.12456
C         23.13625        53.05675        -0.65361
C         21.87660        52.35049        -0.82188
C         23.18318        54.37490        -0.25891
C         21.93490        55.20900        -0.39303
C         23.19892        57.10235         0.67708
C         21.95415        56.51056         0.36605
C         23.23139        58.41383         1.22798
C         22.01071        59.11324         1.46319
C         23.27829        61.04199         2.26770
C         22.05705        60.43430         1.98680
C         24.35885         4.34149        -2.40217
C         25.66482         6.49589        -2.25685
C         24.36298         5.72345        -2.16418
C         25.68323         7.76354        -1.42091
C         24.42313         8.53773        -1.34375
C         25.62314        10.37200        -0.16777
C         24.38369         9.76479        -0.52888
C         25.67156        11.73840         0.17365
C         24.41402        12.43224         0.42086
C         25.65607        14.53587         0.53950
C         24.39491        13.76993         0.70804
C         25.63521        16.01679         0.64331
C         24.37250        16.74626         0.88057
C         25.61628        18.90171         1.03041
C         24.35170        18.11168         0.81447
C         25.60803        20.16253         0.17757
C         24.35783        20.95248         0.45963
C         25.65871        23.07455         0.47142
C         24.39801        22.35576         0.52744
C         25.68889        24.48532         0.65008
C         24.50256        25.22236         0.90747
C         25.77283        27.27111         1.29010
C         24.50587        26.62312         1.10210
C         25.84725        28.73394         1.50194
C         24.57093        29.49409         1.46637
C         25.79507        31.64433         1.42229
C         24.62429        30.94318         1.60267
C         25.85713        33.11549         1.65590
C         24.61004        33.93014         1.65822
C         25.84017        36.06200         1.28472
C         24.62013        35.30003         1.52445
C         25.81063        37.40871         0.93490
C         24.48222        38.11476         0.66834
C         25.74584        40.22291         0.22826
C         24.60252        39.63682         1.00481
C         25.59350        41.46225        -0.61651
C         24.43212        42.33617        -0.15894
C         25.59246        44.31668        -1.31744
C         24.47892        43.84168        -0.39377
C         25.55334        45.75060        -1.73058
C         24.32573        46.18565        -2.10467
C         25.58975        48.83068        -1.70354
C         24.32044        48.34980        -2.10641
C         25.58843        50.19728        -1.27634
C         24.36621        50.91125        -1.19095
C         25.65914        52.96745        -0.52868
C         24.40414        52.41060        -1.14490
C         25.66221        54.30524        -0.07115
C         24.43581        55.04376         0.02375
C         25.68757        57.00450         0.84219
C         24.43761        56.37473         0.48361
C         25.68766        58.33225         1.33220
C         24.48454        59.04447         1.53525
C         24.48064        60.36530         2.05100
C         26.81344         8.24349        -0.87000
C         28.10449        10.37902        -0.64442
C         26.89593         9.55475        -0.12641
C         28.16498        11.75119        -0.00803
C         26.91942        12.43176         0.30004
C         28.17071        14.52806         0.79592
C         26.96487        13.82484         0.59599
C         28.15273        15.97132         0.96362
C         26.91128        16.74049         0.82966
C         28.12841        18.90437         0.89236
C         26.88657        18.10366         0.87680
C         28.08838        20.24757         0.29815
C         26.88729        20.95455         0.28868
C         28.09602        23.12226        -0.04924
C         26.86231        22.37069         0.28086
C         28.15313        24.55507         0.30752
C         26.96698        25.15746         0.73943
C         28.74757        27.54812         0.85070
C         26.90845        26.47364         1.31492
C         28.34042        28.83826         0.48751
C         27.15891        29.49521         1.09276
C         28.21486        31.74452         0.46979
C         26.99001        30.96419         0.84357
C         28.37323        33.13447         1.00231
C         27.15508        33.85110         1.52978
C         28.39778        36.10287         1.06435
C         27.13616        35.36363         1.46258
C         28.27212        37.51118         0.64992
C         27.02226        38.15537         0.67460
C         28.17101        40.23064        -0.14005
C         26.95604        39.54349         0.23817
C         28.12345        41.60655        -0.59591
C         26.90623        42.22080        -0.79147
C         28.14979        44.22685        -1.95573
C         26.85461        43.54316        -1.46201
C         28.10012        45.78954        -1.97408
C         26.78872        46.55511        -2.02169
C         28.01740        48.68890        -1.46101
C         26.79234        48.03865        -1.73477
C         28.03268        50.09625        -1.12450
C         26.84132        50.84119        -1.01285
C         28.10216        52.86076        -0.26964
C         26.85246        52.22546        -0.60166
C         28.10796        54.20230         0.16698
C         26.90661        54.93454         0.29047
C         26.89312        56.27972         0.72725
C         29.35167        12.38207         0.17222
C         30.64894        14.48406         0.10569
C         29.50398        13.74309         0.80748
C         31.11586        15.67062         0.60592
C         29.28260        16.71352         1.30552
C         30.70967        18.75087         0.61808
C         29.43682        18.16777         1.07890
C         30.66740        20.12879         0.07501
C         29.33803        20.85273        -0.16210
C         30.65012        22.99864        -0.76846
C         29.31283        22.32881        -0.44389
C         30.64998        24.44737        -0.27325
C         29.48348        25.23297         0.22885
C         30.46267        27.33248        -0.99261
C         29.61007        26.72269         0.09807
C         30.50264        28.86884        -0.89550
C         29.32555        29.60733        -0.30641
C         30.56359        31.74618        -0.34993
C         29.46608        31.04943         0.03589
C         30.50333        33.25489        -0.45956
C         29.58475        33.88692         0.56692
C         30.68108        36.04091         0.10144
C         29.57834        35.36321         0.57939
C         30.69000        37.48165         0.12915
C         29.46368        38.19666         0.29899
C         30.63853        40.32300        -0.21435
C         29.41025        39.59646        -0.00451
C         30.62577        41.64514        -0.59410
C         29.37500        42.32946        -0.84440
C         30.60870        44.42333        -1.30023
C         29.37945        43.65329        -1.27590
C         30.55411        45.85470        -1.41444
C         29.32286        46.54840        -1.59968
C         30.49846        48.67577        -1.22761
C         29.26869        47.95134        -1.44991
C         30.48824        50.06353        -0.96787
C         29.28203        50.77439        -0.84781
C         29.29557        52.12112        -0.42932
C         32.09274        16.63913         0.23268
C         33.13921        18.85665         0.43228
C         31.96220        18.05252         0.47222
C         33.12535        20.28178         0.41578
C         31.89837        20.94415         0.09921
C         33.09397        23.05562        -0.14570
C         31.89478        22.31410        -0.21740
C         33.14413        24.47080        -0.60669
C         31.85069        25.22755        -0.70582
C         32.97568        27.45102        -0.33465
C         31.77200        26.69320        -0.64090
C         32.98031        28.91809        -0.58340
C         31.80835        29.58258        -0.85087
C         33.02104        31.82154        -0.80995
C         31.72812        31.08660        -1.07451
C         33.04346        33.21594        -0.74914
C         31.84542        33.94769        -0.46967
C         33.12699        36.05180        -0.44521
C         31.89289        35.32376        -0.29058
C         33.08891        37.46330        -0.36016
C         31.90466        38.16042        -0.07922
C         33.17508        40.33973        -0.17287
C         31.91178        39.63227         0.22587
C         33.10594        41.84286        -0.13146
C         31.92630        42.29957        -1.00824
C         33.06712        44.53576        -1.03231
C         31.84307        43.79986        -1.06770
C         33.02100        45.92012        -1.14228
C         31.77597        46.59460        -1.27487
C         31.72957        47.99666        -1.22689
C         34.29334        21.07022         0.60220
C         35.43292        23.29185         0.66899
C         34.28154        22.45606         0.36952
C         35.50883        24.62561         0.33164
C         34.46762        25.21813        -0.59700
C         35.60721        27.49607        -0.45269
C         34.30721        26.71518        -0.28642
C         35.43450        28.97613        -0.20100
C         34.25379        29.61628        -0.46903
C         35.53105        31.81633        -0.73669
C         34.27895        31.02877        -1.00113
C         35.45182        33.13583        -1.10840
C         34.29145        33.95659        -0.88577
C         35.62332        36.11084        -0.34724
C         34.37592        35.34986        -0.66137
C         35.53900        37.46557        -0.13895
C         34.35433        38.19995        -0.69710
C         35.61232        40.38944        -0.44318
C         34.34044        39.67423        -0.37685
C         35.62767        41.75590        -0.50458
C         34.39377        42.51569        -0.55427
C         34.33796        43.83501        -0.90462
C         36.61146        25.47285         0.69374
C         37.82245        27.61399         0.73845
C         36.68840        26.82706         0.38640
C         37.86083        29.00262         0.59357
C         36.63245        29.74523         0.21811
C         38.01752        31.94220         0.24091
C         36.72671        31.23197        -0.07401
C         38.15047        33.34328         0.27019
C         37.22497        34.21750        -0.38281
C         37.88967        36.16937         0.84281
C         36.88016        35.47139         0.05854
C         37.80574        37.54055         0.97575
C         36.59745        38.31356         0.52483
C         36.87104        39.54138        -0.38431
C         38.99445        29.76581         0.96852
C         40.17442        31.85720         1.46941
C         39.04826        31.16631         0.88246
C         40.20967        33.21523         1.60928
C         39.14478        34.02482         1.07421
C         39.02596        35.39571         1.29768
O         30.41057        16.09959         1.79596
O         27.16718        31.48789        -0.53195
O         22.58726        11.71616         1.86244
O         20.40301        10.50169         1.39766
O         25.80291        43.50740        -2.52183
O         19.96784        37.82702         2.88739
O         28.37482        22.73940        -1.50543
O         15.34799        39.99915         2.01095
O         12.71664        34.71178        -2.21384
O         15.04372        20.70317         2.55775
O         14.95294        46.20564        -1.99869
O         23.76277         8.67157        -2.64824
O         13.28483        29.06176        -1.57067
O         24.25792        47.26625        -2.97648
O         16.18023        35.62356         2.13415
O         20.13274        40.29843         2.70204
O         36.61815        33.75514        -1.54327
O         22.64253        24.70038         2.41230
O         19.32226        43.78752         2.00024
O         30.46469        24.58902         1.17305
O         19.27266        46.95504        -2.31767
O         22.69351        44.40012        -2.21727
O         16.42782        18.05398         2.17330
O         28.02225        35.92179         2.48015
O         36.24483        30.71755         1.25746
O         21.74942        42.66017         2.15283
O         29.54884        33.23116         1.87150
O         14.18955        32.27271        -1.71067
O         16.19401        16.82107        -1.20141
O         25.57951        15.36890        -0.70337
O         23.30976        32.42788         3.14207
O         32.50421        24.69877        -1.91541
O          8.92242        31.59298         0.47993
O         26.72099        33.38714         2.83972
O         33.63831        27.01563         0.94920
O         29.47056        29.43326        -1.79102
O         10.76823        38.18486        -2.25569
O         14.91450        31.54379         1.71628
O         23.19012        15.20112         2.33322
O         28.07884        26.94394         1.92049
O         28.82521        18.94990         2.20355
O         29.97483        20.10497        -1.25855
O         26.83188        29.18635         2.47402
O         21.06624        46.07703         0.84983
O         27.51796        46.23474        -3.25501
O         20.49932        23.39024        -1.08378
H         21.36440        23.64635        -1.46768
O         18.02000        33.25381         2.89361
H         17.49931        34.06862         3.07139
O         34.31612        30.79792        -2.47708
H         33.38748        30.82596        -2.81073
O         29.31134         9.65188        -0.40535
H         29.56133         9.77865         0.53326
O         17.86590        14.87815         2.02458
H         17.81768        14.01838         2.49250
O         19.75409        22.07834         2.29326
H         20.03370        21.13508         2.40329
O         32.80617        42.27039         1.23343
H         33.63288        42.19472         1.75551
O         17.49941        30.65700        -0.66814
H         16.67708        30.34624        -1.10582
O         20.68012        54.26068         1.38317
H         19.97519        53.62473         1.62856
O         21.07362        31.75206        -0.34519
H         20.18286        31.69823        -0.75737
O         25.58414        19.36533         2.40717
H         25.69231        18.59544         3.00355
O         20.87391        19.81125        -1.30351
H         20.10117        20.15521        -1.81912
O          8.01756        30.53359        -2.86710
H          8.04586        29.54386        -2.88333
O         18.89725        21.33511        -1.22136
H         19.35723        22.15869        -1.52200
O         24.77555        44.46996         0.88347
H         24.08330        44.20882         1.53009
O         34.49792        38.13327        -2.15739
H         35.43624        38.37401        -2.35124
O         12.78624        40.36669         2.15346
H         13.58982        40.43974         2.72054
O          9.71679        42.39915        -0.08739
H          9.80882        42.44481        -1.06102
O         16.26658        43.56195        -1.95375
H         15.70445        43.88253        -2.69088
O         32.21885        41.83143        -2.35600
H         31.48902        42.12385        -2.94217
O         24.22868        38.07432        -0.77215
H         24.18320        37.13566        -1.04983
O         24.95565        39.73963         2.40340
H         24.22023        39.35211         2.93685
O         35.02249        25.06590        -1.93375
H         34.25514        24.95188        -2.54587
O         17.30499        39.66716        -1.06109
H         18.08687        39.13338        -1.31263
O         30.78797        22.95193        -2.19612
H         29.88230        22.97466        -2.58148
O         35.99945        38.89274         1.73056
H         35.75586        38.15621         2.33024
O         11.99070        18.25026         0.43825
H         12.15942        18.35727        -0.51995
O         16.83763        29.87805         2.87577
H         16.45564        29.04683         3.25252
O         19.57656        29.58643         3.14208
H         18.68245        29.91412         3.41712
O         25.54361        19.71968        -1.20547
H         25.66704        20.49780        -1.78832
O         18.42989        57.43247        -0.03399
H         18.43686        57.28488        -1.00932
O         22.38933        38.59202         3.31605
H         21.50465        38.88287         3.65827
O          8.65536        27.77981        -2.49478
H          9.59558        27.84413        -2.76403
O         20.52833        19.38686         2.30134
H         20.34030        18.61262         2.87335
O         29.85134        13.49938         2.19947
H         30.10468        14.36970         2.58512
O         31.43515        31.26940        -2.51533
H         30.63864        30.70586        -2.69148
O         16.56789        44.56206         1.56983
H         17.24301        44.25319         2.22122
O         23.50614        36.13798         3.40600
H         23.03060        36.94564         3.72322
O         19.34685        55.69197        -1.77520
H         20.27512        55.88547        -2.06659
O         36.05764        27.46129        -1.82964
H         35.99791        26.51960        -2.13556
O         24.46442        52.83950        -2.57152
H         25.26917        52.43325        -2.96048
O         28.33205        43.81591        -3.33083
H         27.75084        44.39871        -3.87435
O         27.13522         9.25840         1.27848
H         27.87949         8.62194         1.31889
O         21.95852        55.57887        -1.81787
H         22.34981        54.83218        -2.32271
O         18.30306        46.72081         1.15669
H         17.64221        46.23194         1.70058
O         15.52928        27.41913         2.74486
H         14.57593        27.58424         2.90918
O         31.87342        39.71496         1.69484
H         31.95243        40.67583         1.91380
O         18.50045        15.77110        -1.45424
H         17.68773        16.04540        -1.94679
O          8.40553        28.55993         1.07685
H          8.39012        29.40288         1.57964
O         29.89581        33.52095        -1.76026
H         30.41532        33.00357        -2.42197
O         37.19395        39.05763        -1.69771
H         37.40221        39.82631        -2.26747
O         11.60768        22.66147         2.35820
H         12.33707        22.24751         2.86862
O         30.03672        26.94491        -2.31524
H         29.44041        27.65555        -2.64372
O         26.77689         5.65970        -1.94204
H         26.67600         5.34272        -1.02155
O         25.22440        40.97316        -1.94793
H         25.27304        41.75521        -2.55406
H          5.34669        31.27330        -1.91669
H          5.39091        33.70754        -1.93289
H          7.65391        26.96843        -0.87305
H          6.49218        29.70924        -0.01559
H          6.58067        35.86161        -1.73950
H          7.66368        37.95038        -1.15992
H          9.88188        22.69726         0.04608
H          8.81081        24.81773        -0.69834
H          8.81716        40.16815        -0.46209
H         10.69642        41.63302         1.54925
H         12.88144        18.62430         2.24914
H         11.07641        20.47432         0.52391
H         11.15907        44.36679        -0.07724
H         12.30665        46.43945         0.06717
H         14.75960        14.06091        -0.42139
H         13.41367        16.27539         0.29929
H         13.59745        48.76858        -0.24396
H         14.76683        50.77227        -0.63252
H         17.22272         9.95814        -0.84431
H         16.00467        11.98466        -0.51452
H         16.00531        52.84810        -0.31832
H         17.19918        54.91799        -0.06151
H         19.74231         5.79153        -1.80136
H         18.46383         7.87541        -1.41998
H         19.02793        56.22028         1.53238
H         19.83283        58.98371         1.40636
H         23.17398         2.53727        -2.58311
H         21.00767         3.69240        -2.15230
H         23.29714        62.06480         2.66962
H         21.11631        60.97324         2.16879
H         25.31105         3.82992        -2.60092
H         25.79409         6.80871        -3.33029
H         26.64609        58.80808         1.58860
H         25.43772        60.85438         2.28274
H         27.74590         7.66197        -0.95444
H         28.00283        10.49791        -1.75610
H         29.06489        54.68714         0.40961
H         27.84093        56.76679         1.00039
H         30.28086        11.85164        -0.08888
H         31.02555        14.09963        -0.85225
H         31.44180        50.57899        -0.78203
H         30.26073        52.59940        -0.20677
H         33.03643        16.29975        -0.22097
H         34.11462        18.34749         0.44957
H         33.94539        46.51287        -1.08240
H         32.66099        48.56771        -1.10182
H         35.22419        20.58367         0.92886
H         36.25398        22.83767         1.24540
H         36.58366        42.30044        -0.56930
H         35.26035        44.39036        -1.13498
H         37.43022        25.02146         1.27714
H         38.70100        27.10517         1.16642
H         38.59880        38.09259         1.50351
H         37.73027        40.14921         0.01435
H         39.86280        29.23543         1.38931
H         40.98285        31.24384         1.89472
H         41.03716        33.70090         2.14622
H         39.80344        35.91113         1.88169
