         261
 CSIRO Nanostructure Databank - Neutral Graphene Oxide Data Set
C        -11.39538         0.72002        -0.29029
C        -10.19267         1.52903        -0.19342
C         -8.90077         0.82477         0.16021
C         -7.69615         1.57967        -0.40644
C         -6.33888         0.82465        -0.30429
C         -5.06138         1.55881         0.01564
C         -3.67871         0.85193        -0.05013
C         -2.54612         1.47201         0.79995
C         -1.21242         0.78420         0.60580
C          0.05124         1.48798         1.04282
C          1.34423         0.73311         1.02297
C          2.62651         1.50874         0.85099
C          3.93758         0.77528         0.85590
C          5.23878         1.46618         1.14871
C          6.52340         0.75617         0.74302
C          7.74309         1.52230         0.26538
C          8.80891         0.79947        -0.52150
C         10.22979         1.38065        -0.34973
C         11.25263         0.59468        -1.13693
C        -10.16936         2.89531        -0.32684
C         -8.94256         3.65859        -0.16235
C         -7.79101         2.86659         0.42064
C         -6.48430         3.64248         0.70239
C         -5.14609         2.93005         0.64229
C         -3.83855         3.70440         0.81432
C         -2.54817         2.95261         1.00795
C         -1.25296         3.69015         0.69600
C          0.05148         2.95349         0.68412
C          1.36555         3.74825         0.63872
C          2.55163         2.96721         1.22872
C          3.83917         3.68817         1.43589
C          5.14566         2.96626         1.28558
C          6.42621         3.72073         1.09111
C          8.34814         2.80272         0.91811
C          9.12556         3.62196        -0.12024
C         10.15301         2.86397        -0.66114
C         -8.82779         4.96751        -0.54503
C         -7.59660         5.72939        -0.42764
C         -6.57297         5.20935         0.60009
C         -4.94454         5.61534        -0.40916
C         -3.79246         5.13425         0.42410
C         -2.49805         5.89340         0.30405
C         -1.21341         5.20704         0.57876
C         -0.02573         5.95432         1.15125
C          1.24572         5.15141         1.25362
C          2.54184         5.91059         1.20818
C          3.88412         5.17701         1.25263
C          5.15942         5.84279         0.77188
C          6.99706         5.60179         1.01607
C          7.80961         5.83372        -0.21067
C          8.88383         4.96551        -0.55342
C         -7.46349         6.91321        -1.10315
C         -6.22539         7.73196        -1.16226
C         -4.94785         7.09147        -0.72145
C         -3.89486         7.97070        -0.09233
C         -2.61649         7.37136         0.47579
C         -1.36767         8.18384         0.70585
C         -0.01406         7.56591         1.22766
C          1.24796         8.18827         0.56061
C          2.48986         7.29186         0.63930
C          3.67190         7.76958        -0.15231
C          4.98572         7.01083        -0.17223
C          6.18236         7.67982        -0.82226
C          7.53379         7.04252        -0.84688
C         -6.24312         9.21227        -1.33061
C         -5.12130         9.95345        -1.21897
C         -3.90782         9.44614        -0.52075
C         -2.60021        10.02528        -0.65358
C         -1.36263         9.60562         0.11322
C         -0.10434         9.88425        -0.69409
C          1.05581         9.19895        -0.54404
C          2.33573         9.90777        -0.11262
C          3.60545         9.20408        -0.58652
C          4.89847         9.84415        -0.91947
C          6.03923         9.13343        -1.08955
C        -11.38207        -0.63820        -0.34692
C        -10.11675        -1.39757        -0.46282
C         -8.86327        -0.62696        -0.24796
C         -7.61874        -1.34724         0.17666
C         -6.31264        -0.72484        -0.32393
C         -5.09324        -1.33345         0.39544
C         -3.76583        -0.69018         0.07999
C         -2.50882        -1.45960         0.34227
C         -1.20568        -0.70375         0.43770
C          0.07737        -1.49104         0.61993
C          1.35793        -0.74284         0.73440
C          2.65488        -1.49668         0.89265
C          3.94818        -0.73498         0.85978
C          5.25236        -1.49517         0.86596
C          6.47855        -0.75820         0.42321
C          7.40013        -1.38301        -0.61724
C          8.63650        -0.63151        -0.98883
C          9.83901        -1.50137        -1.38637
C         11.12364        -0.70446        -1.43603
C        -10.05196        -2.88068        -0.34600
C         -8.93634        -3.55477         0.02489
C         -7.69358        -2.81903         0.42078
C         -6.40140        -3.58462         0.53680
C         -5.12265        -2.80073         0.74210
C         -3.83252        -3.61127         0.88254
C         -2.51926        -2.88910         0.81132
C         -1.22472        -3.63999         0.59315
C          0.02597        -2.93420         1.03720
C          1.29847        -3.70182         1.24113
C          2.62656        -2.97556         1.20297
C          3.88929        -3.70197         0.87216
C          5.03114        -2.88505         0.34541
C          6.18687        -3.55115        -0.28284
C          7.44015        -2.90757        -0.77534
C          8.74166        -3.52760        -0.31461
C          9.88897        -2.78105        -0.53264
C         -8.89905        -5.08147         0.00303
C         -7.59291        -5.60937        -0.66907
C         -6.35107        -4.99997         0.06801
C         -5.01406        -5.59565        -0.28358
C         -3.83607        -5.08426         0.50149
C         -2.53768        -5.83575         0.33704
C         -1.22758        -5.12181         0.51712
C         -0.01850        -5.93103         0.91067
C          1.32583        -5.20402         1.01423
C          2.57862        -5.88993         0.52986
C          3.89801        -5.14866         0.45098
C          5.05385        -5.74064        -0.30776
C          6.31239        -4.97666        -0.69950
C          7.53447        -5.70421        -0.17242
C          8.70108        -4.91523         0.04434
C         -7.40854        -7.09220        -0.57365
C         -6.27002        -7.71341        -1.31483
C         -4.94401        -6.92646        -0.95960
C         -3.64690        -7.71464        -1.04528
C         -2.40527        -6.97562        -0.63724
C         -1.38491        -8.20488         0.48399
C         -0.05096        -7.42033         0.67881
C          1.16993        -8.00561        -0.01279
C          2.41976        -7.18628        -0.23991
C          3.66799        -7.88833        -0.74044
C          4.97725        -7.14655        -0.80565
C          6.30115        -7.87360        -0.59619
C          7.47144        -7.09536        -0.10952
C         -6.12379        -9.19642        -1.02501
C         -4.96173        -9.87076        -1.01005
C         -3.64345        -9.20570        -1.16323
C         -2.38006        -9.97846        -0.95163
C         -1.28972        -9.47514        -0.33582
C         -0.03801       -10.30015        -0.05362
C          1.25198        -9.48864        -0.15473
C          2.44603       -10.11348        -0.31048
C          3.70565        -9.39753        -0.65405
C          5.03005       -10.01859        -0.40729
C          6.19379        -9.33104        -0.35400
O          0.40169         5.32699         2.40488
O          7.34085         5.90234         2.12177
O          2.99187         3.26322         2.56924
O         -8.26785         2.38357         1.74405
O         -0.69189         3.12733        -0.55141
O         -9.28025        -0.87159        -1.61165
O          3.54308        -3.41266         2.25180
O          7.31286        -3.38215        -2.20020
O          3.34018         1.28914        -0.38772
O         -1.00848        -4.29215        -0.68738
O          4.75054         5.95307         2.13253
O         -2.12482        -8.32129         1.52076
O         -6.47023         5.89283         1.66280
O         -5.19178         7.23872        -2.15468
O          1.37219        -7.20988        -1.24988
O          1.94981         9.41289         1.24789
O         -5.89117         3.04713         1.88289
O          6.57800        -4.73153        -2.14111
O         -4.81182        -5.68966        -1.72684
O         -4.02605         4.77089         1.79939
O          6.39891        -1.43991         1.73518
O          4.97609        -5.83711         1.16599
O         -4.36379         8.96503         0.82804
O         -3.35995        -6.02803         1.50304
O         -6.50705        -4.72784         1.47510
O          0.87023        -1.21684        -0.56659
O         -8.67465         0.96710         1.59468
O          3.24121         8.11362        -1.50166
O         -1.59198         5.57817        -0.79560
O          5.80887        -7.43643        -1.93161
O         -3.08255        -1.37352        -1.01152
O         -7.77429        -1.84252         1.52505
O          7.83938         1.67354        -1.17584
O          2.64602         7.06374         2.08135
O         -5.55840         1.44352        -1.35738
O          2.17947        -5.94349         1.92950
O         -0.07447        -6.87263         2.01661
O         -2.66013         2.01887         2.13579
O         -5.24695        -1.75596         1.76170
O          6.10269         3.45668         2.31051
O          3.33855        -1.23087        -0.37491
O          3.50068        -8.69000        -1.93247
O          5.30066         6.72275        -1.55958
O          5.07431        -2.96552        -1.09040
O          7.49162        -0.71413        -1.89464
O          8.66978         2.83121         2.10401
O         -3.53446        -8.32578        -2.37166
O         -1.04553         0.19559        -0.70185
O         -2.33629         7.96250         1.76803
O          0.66241         1.07393         2.28282
O          6.13416         0.92109         2.13601
O          0.47652        -3.25332         2.37557
O         -3.11178        -3.23422         2.08894
O         -9.03549        -5.60720         1.31702
H         -8.29446        -5.26083         1.86811
O          0.03363       -11.44451        -0.89413
H          0.27159       -11.15520        -1.79879
O         -6.20742        -1.12273        -1.70412
H         -5.67043        -0.43924        -2.16997
O         -3.25033         1.16364        -1.38841
H         -2.64350         0.44971        -1.70172
O          9.65314        -1.96208        -2.74266
H          8.68513        -2.06144        -2.90698
O         -1.61144        -6.65415        -1.70503
H         -1.83310        -7.26332        -2.44831
O         -5.02056         4.83800        -1.54685
H         -5.35483         5.41393        -2.28167
O         -1.27273        10.53196         1.24065
H         -1.73256        10.10573         1.99902
O         10.63545         1.16246         1.02937
H         10.23483         1.84322         1.61819
O         -6.42276        -7.54754        -2.74106
H         -5.57027        -7.80483        -3.15955
O          0.02934         7.90894         2.60140
H          0.91825         7.65693         2.94525
O         -7.92022         1.88126        -1.78161
H         -8.02722         1.03853        -2.27349
O          1.72108         3.96063        -0.74022
H          0.91422         3.81537        -1.29232
O         -7.57612        -5.12424        -2.00665
H         -7.08302        -5.77164        -2.56803
H         11.96591        -1.22483        -1.91798
H         12.22419         1.08688        -1.29996
H         10.84826         3.30508        -1.39283
H          9.53742         5.31739        -1.37020
H          8.21237         7.38931        -1.64442
H          6.96452         9.67735        -1.33476
H          4.91833        10.93713        -1.04838
H          2.36339        11.01907        -0.16319
H         -0.06430        10.87431        -1.17713
H         -2.47864        10.86073        -1.35944
H         -5.13879        11.02068        -1.48587
H         -7.16389         9.66302        -1.72992
H         -8.31475         7.27115        -1.70687
H         -9.68948         5.46237        -1.02245
H        -11.08829         3.43645        -0.60043
H        -12.36111         1.24817        -0.28922
H        -12.32892        -1.19735        -0.36862
H        -10.95143        -3.44794        -0.63448
H         -9.76773        -5.44966        -0.59579
H         -7.62391        -7.51457         0.42335
H         -7.06151        -9.75574        -0.88877
H         -4.96180       -10.95604        -0.82849
H         -2.33816       -10.98867        -1.39190
H         -0.14381       -10.67474         1.00214
H          2.46410       -11.21494        -0.34786
H          5.03790       -11.09574        -0.18007
H          7.11770        -9.86761        -0.08820
H          8.34400        -7.66135         0.25198
H          9.63512        -5.41245         0.34663
H         10.87244        -3.23784        -0.34080
