         244
 CSIRO Nanostructure Databank - Neutral Graphene Oxide Data Set
C          1.44486         2.15963         1.56793
C          1.39033         3.59059         1.28787
C          2.54682         1.40857         1.30959
C          2.37173         4.46828         1.67379
C          1.26063         6.57393         1.08272
C          1.22151         7.89745         0.62891
C          2.44945         5.84369         1.12594
C          2.39392         8.56505         0.26158
C          1.20552        10.71338        -0.29073
C          1.21493        12.11069        -0.53739
C          2.36087         9.94473        -0.18881
C          2.38612        12.84735        -0.68467
C          1.24990        15.03035        -0.34225
C          1.22177        16.37546        -0.18905
C          2.44974        14.30607        -0.70478
C          2.37427        17.20516        -0.54891
C          2.44535        18.54438         0.07893
C          3.74700         1.95152         0.68885
C          3.74289         3.31191         0.02487
C          4.93617         1.29693         0.62340
C          4.87355         4.20004         0.51074
C          3.67366         6.43974         0.66321
C          3.65300         7.85362         0.32506
C          4.87664         5.68785         0.45981
C          4.86949         8.53408         0.10610
C          3.62594        10.56506        -0.58976
C          3.62980        12.08072        -0.82916
C          4.89995         9.91488        -0.23210
C          4.90293        12.79109        -0.70031
C          3.66056        14.98459        -0.94832
C          3.67470        16.49701        -0.97642
C          4.88356        14.18258        -0.97468
C          4.90056        17.33614        -0.72935
C          3.61183        19.18409         0.31209
C          4.88485        18.58988        -0.05667
C          6.11182         1.98105        -0.04527
C          6.17106         3.44476         0.40989
C          7.43879         1.31979         0.19810
C          7.40930         4.20335         0.14725
C          6.12024         6.33022         0.22606
C          6.16270         7.82833         0.43381
C          7.32854         5.62008         0.04422
C          7.36655         8.54264        -0.11819
C          6.10382        10.64748        -0.26935
C          6.11928        12.07894        -0.51079
C          7.35397         9.91078        -0.19819
C          7.34971        12.80567        -0.51178
C          6.14680        14.71300        -1.30404
C          6.16781        16.88422        -1.12137
C          7.36366        14.15123        -0.90054
C          7.37341        17.32910        -0.57711
C          6.10097        19.24984         0.22103
C          7.35399        18.61152         0.03984
C          8.62534         2.04401         0.17080
C          8.61573         3.50042         0.04996
C          9.88050         1.37514         0.23131
C          9.86542         4.21114        -0.12490
C          8.57553         6.31187        -0.36822
C          8.60826         7.79920        -0.45837
C          9.85651         5.58681        -0.30903
C          9.91552         8.50486        -0.45559
C          8.64050        10.64040        -0.10233
C          8.63101        12.14483        -0.21011
C          9.91888         9.94657        -0.33143
C          9.89929        12.82364        -0.50431
C          8.60649        15.00495        -0.92310
C          8.53388        16.39677        -0.26514
C          9.90558        14.27985        -0.74017
C          9.85721        17.13214        -0.19714
C          8.61973        19.23369         0.30693
C          9.83239        18.56702         0.07452
C         11.11087         2.06114         0.10079
C         11.11661         3.48548        -0.09967
C         12.33861         1.36058         0.14839
C         12.34684         4.18193        -0.20630
C         11.09532         6.30235        -0.79461
C         11.10015         7.79506        -0.54113
C         12.37124         5.61004        -0.38471
C         12.36541         8.48607        -0.47902
C         11.09103        10.67677        -0.38211
C         11.09489        12.12503        -0.37711
C         12.40425         9.98984        -0.67910
C         12.35378        12.85692        -0.32606
C         11.12953        15.00571        -0.33800
C         11.04916        16.43503        -0.14960
C         12.32152        14.28373        -0.23577
C         12.32470        17.14949         0.24077
C         11.06725        19.29040         0.09579
C         12.30523        18.64444         0.02311
C         13.57553         2.03666         0.03157
C         13.57488         3.46753        -0.11200
C         14.80797         1.33896         0.04906
C         14.81512         4.16525        -0.22039
C         13.56468         6.32385        -0.28268
C         13.54497         7.78006        -0.33026
C         14.82702         5.61738        -0.22031
C         14.78620         8.50438         0.04218
C         13.53595        10.68783         0.09799
C         13.58481        12.16374        -0.22616
C         14.84556         9.97607        -0.08070
C         14.82871        12.82705        -0.33467
C         13.61516        15.00356         0.08328
C         13.48440        16.43803        -0.47209
C         14.86847        14.27942        -0.38586
C         14.78898        17.21599        -0.44966
C         13.54162        19.31710         0.08144
C         14.78158        18.62584         0.00511
C         16.03514         2.01796        -0.11852
C         16.01657         3.44489        -0.25488
C         17.27834         1.31906        -0.17171
C         17.27310         4.15164        -0.65574
C         16.05211         6.29976        -0.15900
C         16.05885         7.73569         0.19791
C         17.30119         5.62248        -0.31332
C         17.37919         8.49180         0.29705
C         16.04812        10.65441        -0.14923
C         16.06489        12.10187        -0.32182
C         17.31109         9.94124        -0.14638
C         17.29453        12.78154        -0.39610
C         16.05256        14.96421        -0.47106
C         16.08502        16.45134        -0.46375
C         17.36563        14.25461        -0.71846
C         17.30458        17.15637        -0.04120
C         16.01313        19.23593         0.24118
C         17.24672        18.51482         0.21072
C         18.51242         2.00977        -0.25866
C         18.52188         3.40638        -0.29597
C         19.78752         1.29344        -0.41153
C         19.81656         4.10685        -0.58387
C         18.50837         6.31378        -0.34400
C         18.57026         7.74641        -0.26164
C         19.83210         5.59798        -0.20668
C         19.77412         8.43095        -0.36369
C         18.49536        10.63093        -0.25838
C         18.51577        12.07226        -0.26352
C         19.79652         9.93004        -0.54169
C         19.71799        12.75730         0.07284
C         18.54723        14.93663        -0.05931
C         18.64015        16.44265        -0.16293
C         19.66930        14.19307         0.29684
C         19.66886        17.04467         0.76393
C         18.52606        19.28212         0.46526
C         19.59935        18.41272         1.07606
C         20.97724         1.92817        -0.42205
C         21.04442         3.38241        -0.00033
C         22.28057         4.16606        -0.40893
C         21.01321         6.30506        -0.92008
C         21.05022         7.75564        -0.46089
C         22.27189         5.47454        -0.71883
C         22.19479         8.46793        -0.18383
C         21.00294        10.60106         0.07659
C         20.92788        12.03179         0.33778
C         22.15538         9.85599         0.17912
C         22.03068        12.72857         0.85441
C         20.81336        14.84352         0.90517
C         20.72720        16.25545         1.26957
C         21.96407        14.09738         1.14964
C         21.67349        16.85363         2.12928
C         20.55727        18.98748         1.92301
C         21.58321        18.20366         2.45540
O         15.22832         8.01570         1.39827
O          8.64496        11.47496         1.11351
O          5.56027         3.67999         1.71038
O          6.20828        15.86337        -2.07114
O         15.51743        17.04609        -1.71778
O          2.77252        17.10326        -1.95345
O          8.40528         7.00987        -1.71510
O          9.42466        14.78511        -2.08869
O          3.15121         3.55579        -1.01935
O          3.62399        11.12395        -1.94481
O         21.02641         3.30898         1.44229
H         20.90263         4.22325         1.78935
O         20.09485         5.71200         1.22689
H         19.87704         6.62910         1.50342
O         18.28262        20.43837         1.27152
H         17.98594        20.14017         2.15543
O          8.24790        16.01870         1.13809
H          8.21671        16.84506         1.66688
O         13.07654        16.32070        -1.84993
H         13.88622        16.43122        -2.40277
O          3.22753         4.13168         2.67456
H          3.90009         4.82814         2.81190
O         13.21498        10.60345         1.52212
H         13.53938         9.73920         1.85668
O         12.46676        17.03292         1.68135
H         11.71107        17.50373         2.08984
O          5.89961         1.97197        -1.49095
H          4.96462         2.21625        -1.66848
O         19.09024        16.70118        -1.53788
H         18.57643        16.09251        -2.12245
O         19.95181         3.98361        -2.03949
H         19.03832         4.09864        -2.41493
O         20.78361         6.41416        -2.34348
H         20.67043         5.48787        -2.67546
O         17.61831        14.36779        -2.17741
H         16.85678        13.95665        -2.64057
O          6.31312         7.95848         1.91104
H          6.37985         8.91699         2.11393
O         13.79273        15.02094         1.52293
H         13.70447        14.09856         1.84285
O         12.70125        10.20648        -2.08873
H         12.02522         9.73531        -2.61975
O         19.97175        10.11358        -1.99756
H         20.71140         9.53103        -2.27681
O         17.24768         4.13733        -2.16989
H         16.89642         3.25974        -2.43816
O         17.70385         8.56357         1.72706
H         16.83820         8.57801         2.20246
O         11.03003         6.17736        -2.26823
H         10.11373         6.45563        -2.51921
H          0.52667         1.66027         1.92231
H          0.61537         3.94350         0.59088
H          2.55135         0.33588         1.55778
H          0.33127         6.10047         1.42936
H          0.25415         8.41558         0.59833
H          0.22740        10.25336        -0.09142
H          0.23953        12.61575        -0.53134
H          0.35394        14.45588        -0.07310
H          0.33526        16.86779         0.23792
H          1.49745        18.98443         0.42550
H          5.05614         0.28761         1.04657
H          3.61894        20.16382         0.81193
H          7.47880         0.22181         0.26525
H          6.07093        20.25578         0.66483
H          9.89146         0.28153         0.35205
H          8.63949        20.29421         0.59829
H         12.33016         0.26836         0.27816
H         11.02915        20.39006         0.14016
H         14.80572         0.24507         0.16396
H         13.55538        20.41265         0.19584
H         17.27346         0.22032        -0.12374
H         16.04967        20.30123         0.51477
H         19.73246         0.20954        -0.59821
H         18.90216        19.66000        -0.52478
H         21.91039         1.36267        -0.56784
H         23.24905         3.64205        -0.34643
H         23.22947         5.96212        -0.96641
H         23.17191         7.96444        -0.19064
H         23.09542        10.31619         0.51553
H         22.96801        12.19615         1.06484
H         22.85412        14.58005         1.57539
H         22.48874        16.25473         2.55715
H         20.49136        20.05860         2.16047
H         22.32768        18.65540         3.12569
