         257
 CSIRO Nanostructure Databank - Neutral Graphene Oxide Data Set
C        -11.41735         0.70401         0.28448
C        -10.16763         1.51633         0.37149
C         -8.89621         0.73792         0.25598
C         -7.66430         1.49939        -0.13480
C         -6.39602         0.74664        -0.31476
C         -5.08498         1.47120        -0.38133
C         -3.80348         0.70246        -0.36658
C         -2.51272         1.43811        -0.13602
C         -1.25367         0.62436        -0.26111
C          0.02815         1.30703        -0.56375
C          1.32994         0.67690        -0.14781
C          2.55574         1.24278        -0.83687
C          3.82807         0.46441        -0.75936
C          5.16259         1.18114        -0.84230
C          6.44644         0.46798        -0.49081
C          7.67191         1.32546        -0.18043
C          9.00832         0.73201         0.07834
C         10.26535         1.48551         0.51323
C         11.40844         0.71290        -0.17845
C        -10.10362         2.98796         0.11500
C         -8.92858         3.68820         0.05416
C         -7.62017         2.96233         0.36318
C         -6.38950         3.63708        -0.30888
C         -5.06486         2.94944         0.02146
C         -3.84256         3.60972        -0.61369
C         -2.52004         2.91097        -0.36419
C         -1.27734         3.56212        -0.90930
C          0.00451         2.77708        -0.92540
C          1.30608         3.51520        -0.79092
C          2.59884         2.75819        -0.84245
C          3.88734         3.48232        -1.15632
C          5.17665         2.71538        -0.89851
C          6.34815         3.46922        -0.32774
C          7.29852         2.63225         0.47201
C          9.33243         3.85163        -0.11581
C         10.30001         2.99231         0.17864
C         -8.83970         5.14768        -0.01712
C         -7.67867         5.84340        -0.22064
C         -6.43599         5.10688        -0.59079
C         -5.16627         5.90820        -0.92786
C         -3.85817         5.08218        -0.87957
C         -2.53818         5.82562        -0.79652
C         -1.25147         5.06856        -0.86639
C          0.06405         5.70044        -0.50014
C          1.25637         4.98967        -1.08642
C          2.53207         5.74182        -1.16490
C          3.86397         4.99090        -1.05493
C          4.99778         5.64889        -0.29007
C          6.23619         4.90957         0.06866
C          7.57617         5.63791         0.33891
C          8.63926         4.92226        -0.51413
C         -7.63971         7.34659         0.08184
C         -6.34294         8.13032        -0.32122
C         -5.10848         7.23365        -0.18409
C         -3.79968         7.88226         0.10822
C         -2.51642         7.12305        -0.04483
C         -1.21634         7.80627         0.23942
C          0.09890         7.13559        -0.08698
C          1.29845         7.99622        -0.38890
C          2.48903         7.23596        -0.93570
C          3.78721         7.85481        -0.58010
C          5.01724         7.14047        -0.16395
C          6.29269         7.87207         0.08580
C          7.46015         7.15954         0.16681
C         -6.15378         9.36553         0.55115
C         -4.95941         9.95144         0.73788
C         -3.72032         9.40727         0.05688
C         -2.37631         9.97041         0.50857
C         -1.19895         9.27869         0.46685
C          0.11663         9.87778         0.70165
C          1.33227         9.33535         0.33870
C          2.56489        10.03063         0.77610
C          3.81585         9.90226         0.22556
C          5.17559        10.13997         0.71648
C          6.23416         9.28760         0.51050
C        -11.43363        -0.64708         0.19793
C        -10.22376        -1.47389        -0.08353
C         -8.92879        -0.71005        -0.16897
C         -7.65556        -1.47262         0.00588
C         -6.36871        -0.71568        -0.00575
C         -5.13056        -1.53563        -0.32042
C         -3.78066        -0.79662        -0.22054
C         -2.52439        -1.45453         0.28051
C         -1.27566        -0.65726         0.52535
C          0.00177        -1.36756         0.85826
C          1.31864        -0.70127         0.45826
C          2.49942        -1.60546         0.21874
C          3.81850        -0.96473        -0.24674
C          5.11534        -1.64519         0.09648
C          6.47183        -0.98340        -0.05740
C          7.77977        -1.56634         0.42206
C          9.04347        -0.73010         0.40946
C         10.31864        -1.50753         0.10915
C         11.40933        -0.62182        -0.39609
C        -10.14486        -2.93685         0.12199
C         -8.96264        -3.66943        -0.00243
C         -7.65373        -2.95749        -0.30884
C         -6.51116        -3.66258         0.42946
C         -5.19341        -2.84140         0.48837
C         -3.89677        -3.55062         0.68978
C         -2.58710        -2.82256         0.86611
C         -1.34733        -3.57122         1.26038
C         -0.01573        -2.84243         1.25919
C          1.25041        -3.62254         1.41238
C          2.49042        -2.98824         0.82240
C          3.79167        -3.65490         1.14746
C          5.06110        -2.88076         0.92148
C          6.34380        -3.52277         1.31283
C          8.20863        -2.84621         1.26009
C          9.06396        -3.68830         0.32492
C         10.14996        -2.95499        -0.17638
C         -8.87209        -5.09251         0.06324
C         -7.63414        -5.80734        -0.07682
C         -6.42118        -4.94644        -0.39652
C         -5.05247        -5.62464        -0.34577
C         -3.81497        -4.94082         0.16975
C         -2.58077        -5.75181         0.50586
C         -1.38234        -5.08920         1.13903
C         -0.07649        -5.89127         1.24321
C          1.23247        -5.15492         1.48277
C          2.52491        -5.91928         1.31556
C          3.84783        -5.15435         1.21605
C          5.09321        -5.72403         0.50965
C          6.49409        -5.62954         1.23868
C          7.61807        -5.84236         0.19895
C          8.76340        -5.01968        -0.07220
C         -7.52219        -7.18832        -0.01962
C         -6.21941        -7.89972         0.02129
C         -4.95692        -7.11156        -0.15591
C         -3.66039        -7.78232        -0.56831
C         -2.36328        -6.93383        -0.45011
C         -1.08486        -7.79129        -0.21964
C         -0.03731        -7.34207         0.81336
C          1.27679        -8.24985         0.82721
C          2.57336        -7.40821         1.05458
C          3.85326        -8.05711         0.61901
C          4.96196        -7.19621         0.07762
C          6.20850        -7.83964        -0.44915
C          7.45890        -7.03768        -0.49395
C         -6.10436        -9.37467        -0.13604
C         -4.91964        -9.99634        -0.31316
C         -3.64361        -9.27756        -0.58262
C         -2.32121        -9.97033        -0.62442
C         -1.17870        -9.27987        -0.41472
C          0.11449        -9.21799        -1.21670
C          1.39832        -9.08611        -0.45839
C          2.56966        -9.64957        -0.81334
C          3.76417        -9.52539         0.13250
C          5.08446       -10.04120        -0.40111
C          6.20892        -9.32077        -0.55433
O         -3.76592        -8.45540        -1.84876
O          3.53966        -7.94904         2.01977
O          4.48620        -1.84402        -1.19712
O         -1.79486         5.76055        -2.04355
O         -7.22891         1.15820        -1.46390
O         -0.26274        -7.79612        -1.49251
O         -3.91623         4.09991        -1.96578
O         -2.82672        -1.42974        -1.14740
O         -5.38687        -7.44582         1.19302
O          8.63456         1.17303        -1.26197
O         -6.63691         4.06585        -1.64362
O          2.22069        -2.77637        -0.60760
O         -1.89785         7.03358         1.28038
O         -4.68782        -3.04276         1.83184
O          2.03259         3.22849         0.43697
O          5.11726        -7.31147        -1.36506
O         -0.73975        -0.57867         1.85325
O         -2.39754        -5.79424         1.92855
O          5.79429        -2.80107         2.22670
O         -7.43959         2.94026         1.72828
O          1.59216         0.47544         1.27198
O         -2.41824         2.36580         0.99820
O          1.92790        -5.66925         2.63227
O         -4.60237         7.24186         1.17243
O          9.94182        -1.07209         1.46644
O         -2.19715        -2.95881         2.26452
O          5.19642         5.07266         1.06630
O          7.32252        -1.80865        -0.92954
O         -9.38425         1.06298         1.56538
O         -9.61236        -1.02649        -1.38842
O          1.64503         8.00747        -1.81598
O          6.66257        -5.89650         2.41680
O          1.77105         5.38672        -2.36825
O          3.88913         9.18953        -0.98884
O          6.02161         0.61483        -1.87033
O         -0.66521         0.50068        -1.57613
O          7.44803         2.78912         1.67353
O          4.08293         4.31603        -2.32798
O          1.13525        -9.17881         1.84570
O          6.27592         3.18013        -1.73635
O         -6.98561        -1.10601         1.25450
O         -6.61545        -4.48206        -1.77898
O          4.01704         7.59069         0.83740
O         -4.39839         1.16184        -1.62438
O         -7.38546        -3.20836        -1.72157
O          3.04693         0.57790        -2.00903
O          3.96004        -4.34553         2.41032
O          0.66794        -2.98435         2.55983
O         -0.73765         3.02278        -2.14684
O         -0.36013        -7.00139         2.15522
O          0.34338         6.05136         0.88198
O         -4.13673        -4.99529        -1.26103
O          8.44470        -2.76579         2.46307
O         -5.29964         6.28193        -2.32292
H         -5.30912         5.43915        -2.83624
O         -5.26270        -1.91460        -1.69472
H         -4.37182        -2.10018        -2.06892
O          7.91280         5.45928         1.71751
H          7.08525         5.50209         2.24359
O         -6.44599         8.59455        -1.68528
H         -6.25574         7.82837        -2.28248
O          3.47087       -10.36692         1.25719
H          2.64780       -10.00439         1.70577
O         -3.81177         9.75876        -1.35558
H         -4.74079         9.58075        -1.64965
O         -7.83830         7.49489         1.49473
H         -7.08581         7.07542         1.96323
O          5.22674        -4.93695        -0.68859
H          5.24603        -5.55933        -1.46095
O         -6.95307        -3.97640         1.74352
H         -6.23336        -3.74528         2.37916
O         -4.94152         3.07074         1.44106
H         -4.06057         2.73638         1.73512
O         -2.14705        -6.29454        -1.71584
H         -2.31991        -6.96260        -2.41606
O         10.39178         1.39633         1.93503
H         11.27902         1.70963         2.20251
H         12.25885        -1.08645        -0.92078
H         12.26785         1.30062        -0.53909
H         11.27842         3.44776         0.43683
H          8.62754         5.15616        -1.59557
H          8.37902         7.70950         0.42817
H          7.20517         9.65052         0.88912
H          5.38521        11.07101         1.26873
H          2.45415        10.64636         1.68243
H          0.11959        10.87217         1.17630
H         -2.34471        11.05614         0.69428
H         -4.87811        10.85884         1.35580
H         -7.05228         9.78987         1.02361
H         -8.51155         7.84093        -0.41658
H         -9.75467         5.71798         0.21195
H        -11.06061         3.51310        -0.03604
H        -12.37383         1.23715         0.40156
H        -12.39995        -1.17327         0.24127
H        -11.07463        -3.46571         0.38806
H         -9.79094        -5.67325         0.24426
H         -8.43405        -7.79692         0.09226
H         -7.02074        -9.97254        -0.01740
H         -4.88717       -11.09599        -0.34334
H         -2.29284       -10.98957        -1.04134
H          0.17937        -9.83858        -2.13995
H          2.62961       -10.31383        -1.69049
H          5.13592       -11.13292        -0.53170
H          7.14746        -9.81240        -0.85191
H          8.27646        -7.40845        -1.13632
H          9.45358        -5.44580        -0.82444
H         10.86257        -3.43408        -0.86732
