         324
 CSIRO Nanostructure Databank - Neutral Graphene Oxide Data Set
C         32.13031        54.71869        -2.78463
C         32.50228        55.55986        -3.89754
C         32.16039        55.23244        -5.21741
C         33.27893        57.22075        -6.05483
C         32.55024        56.06430        -6.28232
C         32.68014        52.98296         1.79889
C         32.88800        54.04340         0.74597
C         32.19460        54.05874        -0.42309
C         33.19945        56.25708        -1.16185
C         32.46321        55.01335        -1.48422
C         33.55062        57.13271        -2.30577
C         33.24998        56.74983        -3.64635
C         34.44765        58.74588        -4.48640
C         33.64587        57.60029        -4.73142
C         35.22321        48.91781         2.67199
C         35.24073        50.29946         2.82494
C         33.94988        51.06541         2.97852
C         35.17860        53.05011         2.13711
C         34.00286        52.38270         2.23824
C         35.23038        54.46332         1.67561
C         33.98497        55.00220         0.99898
C         35.37595        56.93675         0.16919
C         34.08847        56.21660         0.12799
C         35.48774        58.18924        -0.45430
C         34.18236        58.35793        -2.11783
C         35.86274        60.02059        -2.86661
C         34.80390        59.09703        -3.16998
C         37.55367        44.80339         1.41922
C         37.59230        46.12404         1.95030
C         36.40328        46.82983         2.18954
C         37.70083        48.85964         2.68612
C         36.43717        48.19292         2.52636
C         37.71838        50.30547         2.82018
C         36.46630        50.99843         2.84588
C         37.71035        53.24335         2.64231
C         36.42422        52.47290         2.72023
C         37.74305        54.49100         1.82788
C         36.54749        55.08644         1.38792
C         37.82603        56.97668         0.45957
C         36.57527        56.31526         0.65616
C         37.89392        58.20801        -0.27184
C         36.71400        58.76971        -0.83306
C         38.02454        60.55650        -1.87107
C         36.80247        59.83977        -1.81994
C         39.77216        40.85098        -0.73051
C         39.78101        42.00396         0.16470
C         38.52613        42.83803         0.30762
C         39.98579        44.70654         1.39920
C         38.70723        44.12549         1.08789
C         40.04540        45.98703         1.99599
C         38.85781        46.74892         2.19939
C         40.16606        48.74685         3.03967
C         38.89498        48.11248         2.61863
C         40.19381        50.29842         3.03405
C         38.93544        51.00920         2.79033
C         40.25668        53.08227         2.31930
C         39.01825        52.51261         2.97966
C         40.24786        54.39663         1.82101
C         39.00182        55.08590         1.53318
C         40.28290        57.04667         0.72761
C         39.03615        56.36112         0.90087
C         40.31216        58.34656         0.14340
C         39.12966        58.88830        -0.42664
C         40.38851        60.83499        -1.22958
C         39.17040        60.12865        -1.15949
C         42.04963        37.18007        -3.12302
C         42.11022        38.26671        -2.17646
C         40.92600        38.94707        -1.77362
C         42.22786        40.71413        -0.62181
C         40.95378        40.14129        -0.99231
C         42.32437        42.02089        -0.13243
C         41.12695        42.65753         0.44343
C         42.40867        44.70683         0.95515
C         41.20123        44.05501         0.93731
C         42.57762        45.91921         1.77152
C         41.35288        46.54809         2.39836
C         42.68483        48.75147         2.47484
C         41.48761        47.95599         3.01032
C         42.73390        50.18580         2.89639
C         41.47997        50.98328         2.85753
C         42.72667        53.05995         2.29288
C         41.49155        52.35968         2.48767
C         42.72159        54.40423         1.86525
C         41.48909        55.06785         1.57219
C         42.72324        57.16893         1.09372
C         41.50264        56.42211         1.12065
C         42.69498        58.53923         0.67947
C         41.52696        59.09910         0.12542
C         42.75709        61.09011        -0.70792
C         41.55740        60.38054        -0.56662
C         44.35330        35.18766        -5.29931
C         43.16842        35.67929        -4.74671
C         44.50872        36.84992        -3.03252
C         43.19128        36.56565        -3.63459
C         44.59206        38.03825        -2.06421
C         43.35826        38.74921        -1.74320
C         44.66803        40.79900        -1.24427
C         43.49411        39.91816        -0.80699
C         44.77431        42.06903        -0.42612
C         43.56889        42.71587        -0.08243
C         44.90990        44.71518         0.66624
C         43.58693        44.19591         0.16949
C         44.94658        46.04160         1.15893
C         43.81817        46.71432         1.64236
C         45.12480        48.82638         1.94216
C         43.84176        48.10748         2.04029
C         45.22343        50.20912         2.26067
C         44.04225        50.92675         2.81069
C         45.24883        53.10962         2.23254
C         44.01690        52.46958         2.83974
C         45.21774        54.41985         1.86147
C         43.95760        55.14528         1.74584
C         45.18252        57.33234         1.65626
C         43.94355        56.51915         1.47487
C         45.17437        58.79353         1.27894
C         43.86994        59.40812         0.86288
C         45.23513        61.34451        -0.17699
C         43.92331        60.76808         0.08923
C         45.61615        35.57265        -4.83333
C         46.97762        36.94610        -3.28080
C         45.74888        36.45686        -3.73204
C         47.07921        38.06909        -2.39026
C         45.88926        38.71760        -1.93659
C         47.18708        40.57627        -1.05954
C         45.94875        40.00781        -1.37716
C         47.22720        41.78790        -0.21296
C         46.01856        42.63410        -0.11187
C         47.36970        44.48782         0.83792
C         46.11742        43.96290         0.44408
C         47.42411        45.85677         1.33730
C         46.25091        46.75466         0.99722
C         47.55996        48.78213         1.54941
C         46.30209        48.12623         1.60451
C         47.58486        50.19890         1.64122
C         46.43488        50.89942         2.03049
C         47.75188        53.06880         1.86080
C         46.54387        52.36282         2.43334
C         47.75384        54.45991         1.66831
C         46.44518        55.14785         1.35527
C         47.70418        57.27261         1.21867
C         46.50204        56.58857         1.86760
C         47.67150        58.72451         0.91416
C         46.42037        59.50186         0.95060
C         47.69390        61.37447        -0.06163
C         46.42781        60.75022         0.26956
C         48.32293        38.66400        -2.08647
C         49.65439        40.48691        -1.06050
C         48.39846        39.87622        -1.36235
C         49.76073        41.71968        -0.39433
C         48.55846        42.31332         0.24801
C         49.88890        44.47272         0.58275
C         48.65243        43.67267         0.95728
C         49.96988        45.83155         0.89603
C         48.78387        46.56911         1.40131
C         50.02756        48.70555         1.25944
C         48.78194        48.03366         1.35222
C         50.05541        50.10215         1.25798
C         48.79782        50.90896         1.10414
C         50.14814        53.01094         1.40557
C         48.94724        52.34441         1.55849
C         50.25665        54.44131         1.88552
C         48.97182        55.17662         1.59040
C         50.22899        57.26290         1.20455
C         49.01762        56.58339         1.40230
C         50.25640        58.73414         1.03892
C         48.94888        59.49040         0.91909
C         50.17309        61.43800         0.00814
C         48.92129        60.81148         0.25796
C         50.96160        42.44003        -0.38650
C         52.23961        44.50801        -0.14148
C         51.03844        43.80058         0.04108
C         52.34337        45.88301         0.17967
C         51.17792        46.55819         0.67769
C         52.49180        48.60765         0.89176
C         51.26369        47.95524         0.98355
C         52.58377        50.03978         1.36205
C         51.31651        50.77178         0.98180
C         52.65845        52.92429         1.03652
C         51.35077        52.29903         0.97341
C         52.73116        54.36695         1.29352
C         51.49128        55.16520         1.38041
C         52.69514        57.28769         0.80531
C         51.48816        56.54424         1.14656
C         52.68711        58.65645         0.45307
C         51.47069        59.40524         0.54050
C         52.65414        61.56680        -0.06287
C         51.39065        60.77121         0.16399
C         53.55302        46.59309        -0.00366
C         54.91208        48.62090         0.35420
C         53.67503        47.94919         0.39722
C         55.11235        49.97587         0.96346
C         53.82505        50.75728         0.91898
C         55.01630        52.80427         0.22507
C         53.82261        52.13565         0.79736
C         55.05927        54.29407         0.20445
C         54.00547        55.07325         0.93559
C         55.16995        57.21624         0.12217
C         53.98293        56.56846         0.78326
C         55.05969        58.60838        -0.34895
C         53.88515        59.32100        -0.07700
C         54.97558        61.34938        -0.91088
C         53.86142        60.72438        -0.38932
C         56.28851        50.69443         0.36125
C         57.43539        52.77112        -0.36887
C         56.28298        52.04923         0.05881
C         57.44901        54.18974        -0.51118
C         56.32925        54.94697        -0.13808
C         57.43009        57.04315        -1.08455
C         56.22594        56.36257        -0.49572
C         57.43479        58.52053        -1.12026
C         56.22989        59.23534        -0.89440
C         57.33829        61.28624        -1.66685
C         56.19197        60.64340        -1.16728
C         58.65212        54.90928        -0.92307
C         59.98013        57.00222        -1.35938
C         58.67828        56.25851        -1.13419
C         59.81909        58.44996        -1.78985
C         58.59938        59.17626        -1.57502
C         59.70396        61.22007        -2.40096
C         58.54123        60.58159        -1.87188
C         60.91202        59.11317        -2.31809
C         60.85076        60.49539        -2.63179
O         55.08331        57.14798         1.58549
O         40.05696        49.47784         4.26204
O         48.10360        46.04857         2.59666
O         44.58211        36.64019        -1.59469
O         32.83833        56.94397         0.06840
O         54.56795        53.54854        -0.97902
O         34.31524        58.87245        -0.81470
O         40.47037        41.77708         1.43369
O         51.26402        51.48290        -0.29250
O         56.34501        56.53339        -1.95519
O         36.87065        53.31141         3.85632
O         43.59569        50.38330         4.10290
O         53.80170        54.67290         2.31353
O         43.59551        60.63755         1.53461
O         45.03230        58.35395         2.70513
O         42.17614        45.61468         3.17086
O         49.64370        59.45298         2.19500
O         47.81544        41.39271         1.10959
O         34.26498        55.30510         2.40013
O         47.55057        57.69455        -0.17933
O         48.80401        43.38978         2.37525
H         48.23741        42.60529         2.56432
O         50.38498        54.37939         3.35169
H         50.29509        55.29209         3.69933
O         33.72336        51.34560         4.37304
H         34.45798        51.91028         4.69321
O         52.45938        62.57741        -1.05972
H         52.34112        62.13581        -1.92535
O         46.32280        55.22003        -0.08966
H         46.52457        54.33724        -0.46354
O         39.27699        52.70209         4.39956
H         38.40102        52.82569         4.83630
O         46.75887        56.52064         3.27985
H         46.33338        57.30716         3.69439
O         44.33756        41.24271        -2.59852
H         45.09512        41.75908        -2.94457
O         48.55796        51.00385        -0.35467
H         49.43163        51.24356        -0.75524
O         46.77722        52.34671         3.87926
H         45.92661        52.58323         4.32819
O         43.85790        39.37372         0.49373
H         43.12680        38.79914         0.80356
O         41.81883        47.77686         4.40449
H         42.40098        46.98339         4.46291
O         55.39466        49.77482         2.42866
H         55.77874        50.61171         2.76968
O         46.41291        46.96990        -0.45536
H         45.67738        47.54536        -0.75507
O         60.81272        56.28790        -2.27963
H         60.34007        56.22810        -3.13497
O         44.05849        52.86089         4.24932
H         43.60908        52.12990         4.74563
O         43.41481        44.81041        -1.18589
H         44.19339        44.54273        -1.72019
O         52.61229        50.00685         2.82148
H         53.52144        49.70688         3.07199
O         31.79062        51.96197         1.34881
H         32.17917        51.52904         0.56194
O         38.02176        43.15950        -1.00403
H         38.62158        43.81351        -1.41780
H         31.59016        53.78392        -2.99996
H         31.57910        54.32123        -5.41820
H         33.57922        57.86063        -6.89686
H         32.27213        55.78898        -7.30934
H         32.20139        53.45556         2.69874
H         31.44717        53.27346        -0.61554
H         34.86059        59.30789        -5.33704
H         34.26564        48.38028         2.61623
H         33.08558        50.45294         2.62388
H         36.15611        60.72221        -3.66492
H         36.57521        44.35267         1.19808
H         35.43496        46.32916         2.04448
H         38.11302        61.41764        -2.55059
H         38.82664        40.54744        -1.20209
H         37.73365        42.21967         0.80226
H         40.43154        61.77883        -1.79302
H         41.06726        36.91448        -3.54178
H         39.95231        38.56379        -2.11274
H         42.81860        61.91256        -1.43548
H         44.29306        34.50728        -6.16070
H         42.20141        35.40026        -5.18904
H         45.29371        62.20213        -0.86302
H         46.52026        35.21059        -5.34335
H         47.90320        36.56343        -3.73736
H         47.66711        62.35527        -0.55982
H         49.25157        38.17372        -2.41368
H         50.57142        40.01954        -1.45034
H         50.19148        62.47243        -0.36616
H         51.85623        41.98561        -0.83838
H         53.11644        43.98138        -0.54602
H         52.87121        62.11757         0.89667
H         54.43456        46.06231        -0.39196
H         55.77240        48.11947        -0.11454
H         54.93258        62.42925        -1.11668
H         57.22688        50.12663         0.26316
H         58.35933        52.21049        -0.57545
H         57.29477        62.35929        -1.90559
H         59.58930        54.33866        -1.01297
H         60.53939        57.01076        -0.37973
H         59.66627        62.29508        -2.62840
H         61.84566        58.55846        -2.48828
H         61.74043        60.98897        -3.04745
