         349
 CSIRO Nanostructure Databank - Neutral Graphene Oxide Data Set
C          1.35977         2.00467        -0.01242
C          1.32426         3.42774        -0.14902
C          2.52799         1.32476         0.22045
C          2.45690         4.19667         0.01979
C          1.27154         6.39180        -0.07495
C          1.26162         7.77592        -0.16893
C          2.47410         5.64979        -0.09607
C          2.46062         8.50672        -0.33828
C          1.26305        10.74921        -0.31749
C          1.24765        12.10643        -0.20193
C          2.47935         9.96919        -0.22154
C          2.40457        12.82853         0.34616
C          1.31124        15.13663         0.42250
C          1.31536        16.47693         0.11827
C          2.50293        14.32539         0.17894
C          2.53007        17.15132        -0.18666
C          2.53489        18.33735        -0.94139
C          3.77789         2.02573         0.32338
C          3.72342         3.50611         0.33915
C          4.98960         1.37269         0.40517
C          5.02424         4.25602         0.11719
C          3.70205         6.35984        -0.26388
C          3.66868         7.77165        -0.43357
C          4.97101         5.66410        -0.32582
C          4.92172         8.48045        -0.71450
C          3.68571        10.64113        -0.04052
C          3.69461        12.02663         0.44120
C          4.94822        10.01237        -0.46075
C          5.00293        12.74441         0.58377
C          3.87342        15.04286         0.23036
C          3.80541        16.59846         0.41878
C          5.05208        14.21599         0.58432
C          5.02695        17.30158        -0.16170
C          3.69432        18.97535        -1.37709
C          4.98494        18.46595        -1.05356
C          6.25794         2.03817         0.19210
C          6.25297         3.47060        -0.10453
C          7.43343         1.31773         0.18185
C          7.40291         4.13128        -0.48343
C          6.17330         6.31794        -0.60515
C          6.20156         7.76414        -0.68728
C          7.42443         5.57621        -0.60513
C          7.39377         8.48096        -0.67773
C          6.25312        10.60960        -0.15658
C          6.30717        11.99888         0.37891
C          7.41423         9.89359        -0.37802
C          7.56717        12.77433         0.18615
C          6.33310        14.75490         0.83996
C          6.24953        16.90285         0.25523
C          7.55904        14.18636         0.46096
C          7.45687        17.21124        -0.52387
C          6.17067        19.13410        -1.38329
C          7.47141        18.61462        -1.01693
C          8.67054         1.84746        -0.49759
C          8.67438         3.37460        -0.58253
C         10.01028         1.24744        -0.08205
C          9.90843         4.14564        -0.24792
C          8.63309         6.27499        -0.60014
C          8.66804         7.72449        -1.01192
C          9.84478         5.63103        -0.19842
C          9.92471         8.45222        -0.60782
C          8.73679        10.54354        -0.00962
C          8.71925        12.06155        -0.08055
C          9.88420         9.93797        -0.84195
C         10.00783        12.76861        -0.11280
C          8.80743        15.10302         0.36565
C          8.66227        16.33789        -0.56057
C         10.06406        14.29810        -0.00770
C          9.92820        17.09987        -1.05148
C          8.66903        19.27174        -1.01469
C          9.92411        18.55703        -0.51594
C         11.14379         1.96114         0.19509
C         10.98139         3.42915         0.54802
C         12.46334         1.35179         0.33927
C         12.25477         4.20963         0.49439
C         10.97582         6.37009         0.12099
C         11.03502         7.80021        -0.12690
C         12.16445         5.67000         0.64334
C         12.30494         8.52029         0.07116
C         11.18556        10.62757        -0.54794
C         11.18740        12.03284        -0.54461
C         12.35074         9.91857        -0.23803
C         12.43249        12.75260        -0.81494
C         11.22664        15.00502        -0.56093
C         11.23947        16.38927        -0.77957
C         12.45571        14.24666        -0.85662
C         12.45640        17.09907        -0.89442
C         11.18596        19.31644        -0.97845
C         12.47467        18.52551        -0.81090
C         13.60297         2.11886         0.50943
C         13.46435         3.57754         0.46027
C         14.99525         1.75883         0.77567
C         14.66355         4.36768         0.26081
C         13.45536         6.44320         0.81001
C         13.45160         7.89148         0.52453
C         14.69280         5.70803         0.50180
C         14.71288         8.59496         0.85687
C         13.55940        10.70907         0.11263
C         13.71127        12.01114        -0.59883
C         14.75503        10.08763         0.74808
C         14.98969        12.77062        -0.50349
C         13.77071        14.92912        -0.80773
C         13.77060        16.39060        -1.18044
C         14.93805        14.24755        -0.66970
C         15.00390        17.10091        -0.67263
C         13.66886        19.18824        -0.57713
C         14.93241        18.49929        -0.42213
C         15.82399         0.90056         0.04595
C         15.90761         3.79581        -0.34979
C         17.24641         0.96470        -0.06402
C         17.14437         4.25275         0.36670
C         15.96556         6.44462         0.16063
C         15.99968         7.83044         0.78305
C         17.17334         5.60501         0.56035
C         17.29390         8.55285         0.65586
C         16.10309        10.81840         0.85203
C         16.17314        12.14746         0.12357
C         17.32382         9.97455         0.54502
C         17.40731        12.76815         0.01662
C         16.24588        14.94226        -0.80815
C         16.24018        16.42096        -0.62555
C         17.50449        14.15497        -0.52859
C         17.42325        17.11350        -0.28055
C         16.09199        19.16622         0.00381
C         17.33513        18.48980         0.11317
C         18.30489         1.89412         0.22539
C         18.25970         3.32659         0.70313
C         19.58505         1.34767         0.07927
C         19.59344         4.04967         1.02432
C         18.37419         6.34438         0.99613
C         18.44904         7.79611         0.69321
C         19.63619         5.54863         1.17612
C         19.78820         8.42374         0.41021
C         18.56968        10.65267         0.53158
C         18.60103        12.06056         0.35093
C         19.80918         9.90731         0.68935
C         19.95815        12.70701         0.20889
C         18.78833        14.91945        -0.31064
C         18.74314        16.43936        -0.28961
C         19.92964        14.21752         0.30861
C         19.99433        17.20573         0.15218
C         18.46583        19.16127         0.64962
C         19.72564        18.53566         0.82282
C         20.83146         2.03011         0.27704
C         20.86748         3.39160         0.68820
C         22.04262         1.36155         0.01229
C         22.10392         4.09147         0.77541
C         20.93456         6.27542         1.10310
C         20.93672         7.66846         1.03039
C         22.15035         5.51611         1.10314
C         22.12239         8.41111         1.44796
C         20.97877        10.57314         1.03479
C         20.88978        12.06997         1.24139
C         22.19394         9.88685         1.35320
C         22.22263        12.77292         1.31479
C         21.02687        14.90361         0.81857
C         21.01470        16.35969         0.91093
C         22.19216        14.17021         1.27766
C         22.11285        17.04451         1.39248
C         20.77188        19.17744         1.44819
C         22.08296        18.51163         1.73968
C         23.28290         2.03111         0.11528
C         23.30640         3.40899         0.49513
C         24.49152         1.36617        -0.23438
C         24.64460         4.06251         0.74544
C         23.39435         6.19653         1.10510
C         23.42776         7.60067         1.53066
C         24.60116         5.56910         0.72269
C         24.72964         8.34512         1.54970
C         23.39562        10.59688         1.61779
C         23.40754        12.02395         1.58249
C         24.69010         9.85358         1.77632
C         24.68133        12.78920         1.66285
C         23.40013        14.92143         1.78771
C         23.38617        16.38264         1.47939
C         24.66490        14.23361         1.37810
C         24.55271        17.07894         1.19165
C         23.29465        19.21814         1.18587
C         24.48358        18.53222         0.99118
C         25.70204         2.08507        -0.41327
C         25.75870         3.47071        -0.07179
C         26.83279         1.47290        -1.00683
C         26.87040         4.24896        -0.42909
C         25.76754         6.32615         0.42314
C         25.86920         7.73426         0.80512
C         26.85738         5.67641        -0.21804
C         26.99820         8.47622         0.51459
C         25.99356        10.58836         1.56004
C         26.00381        12.08313         1.51321
C         27.17985         9.86033         1.00642
C         27.10291        12.79896         0.82170
C         25.81785        14.91740         1.04706
C         25.79294        16.37741         0.94744
C         27.01609        14.17611         0.67470
C         26.93585        17.09519         0.57233
C         25.67764        19.22279         0.63822
C         26.89139        18.54274         0.45287
C         27.97116         2.22706        -1.33755
C         27.98414         3.63443        -1.09605
C         29.11758         1.60668        -1.94581
C         29.12430         4.40498        -1.49437
C         27.91288         6.46100        -0.83623
C         28.01691         7.97835        -0.42580
C         29.13614         5.81847        -1.32815
C         29.32437         8.59182        -0.52464
C         28.29810        10.66215         0.44236
C         28.24806        12.02675         0.34041
C         29.57531         9.84921         0.26747
C         29.43168        12.70440        -0.35473
C         28.13058        14.94610         0.07673
C         28.17198        16.41865         0.26692
C         29.38894        14.22932        -0.34394
C         29.31010        17.12287        -0.07468
C         28.05153        19.23908         0.04451
C         29.25117        18.56145        -0.25215
C         30.21311         2.34308        -2.30354
C         30.24254         3.76165        -2.09799
C         31.34786         4.54930        -2.49694
C         30.26487         6.58804        -1.68443
C         30.35705         8.00279        -1.28866
C         31.36486         5.91616        -2.28097
C         31.51470         8.76696        -1.55166
C         30.73162        10.66321        -0.24558
C         30.73650        12.09936         0.22637
C         31.64191        10.10923        -1.10693
C         31.95466        12.89719        -0.12153
C         30.65627        14.97009        -0.31613
C         30.67401        16.46817        -0.15550
C         31.87540        14.26780        -0.25847
C         31.55714        17.14369        -1.17248
C         30.33470        19.22585        -0.86764
C         31.40765        18.48106        -1.42311
O         25.57490        12.57675         2.83031
O         18.86362         6.00185         2.34200
O         28.40093        14.66671        -1.36352
O         18.77732         3.42784         2.06262
O          7.67713        16.18654        -1.61975
O         12.66410         6.07449         1.98091
O         27.44356         7.54254        -1.69957
O         22.64429         7.86742         2.71361
O         19.08054        15.70716        -1.52234
O         13.75232        10.77400         1.57057
O          4.45083         4.09281         1.47064
O          9.64234         3.74373        -1.63239
O          3.25684        14.66293        -1.04122
O         14.60560        11.99442        -1.73999
O         10.40238        13.47758         1.17276
O         27.03599        10.07586         2.45020
O          4.84418         9.44675        -1.80920
O         17.02387        14.34036        -1.89674
O          6.37136        16.05877         1.35701
O          5.75849        12.15929         1.72812
O         12.32629        13.44746        -2.11076
O         15.94347         3.25204        -1.44707
O         15.34789         8.00970         2.06594
O         24.89442         8.92280         2.87978
O          2.85180        12.28942         1.62297
O         16.24480        11.15289         2.27297
H         16.03926        10.34125         2.78689
O          9.02816        10.19371         1.36648
H          8.37843        10.64334         1.94726
O         13.87427        16.42125        -2.64552
H         13.83457        17.36007        -2.92635
O         22.23722        18.58223         3.20617
H         22.94207        17.94808         3.46109
O         11.04819        19.64928        -2.36673
H         10.74954        18.82993        -2.83075
O         20.46433        12.38410        -1.11839
H         19.91597        12.86325        -1.77629
O         20.70389        17.58153        -1.06669
H         20.51534        16.87513        -1.72981
O          3.73712        16.85085         1.84058
H          4.61603        16.61962         2.21956
O         23.35490        14.84988         3.26441
H         23.77559        14.00583         3.53984
O         30.59969        12.12620         1.68514
H         31.48402        12.29051         2.07494
O          9.07598        15.68662         1.66118
H          9.45598        14.97087         2.22172
O         20.00270         8.27646        -1.05423
H         19.38830         8.89614        -1.50379
O         29.40129        12.30238        -1.74182
H         28.80495        12.93359        -2.20698
O         31.29268        16.71696         1.17036
H         31.38069        17.68942         1.26720
O         15.21729        -0.09006        -0.66708
H         15.87374        -0.56051        -1.21712
O          9.94196        18.52121         0.92649
H          9.47916        17.71441         1.25222
O         29.92883         9.43764         1.63201
H         30.03223        10.27322         2.14821
O         24.98021         3.73080         2.15505
H         24.28400         4.12730         2.72254
O         16.01035         6.66665        -1.27686
H         15.99078         5.79277        -1.72525
O         10.49198         3.49000         1.92450
H         11.24941         3.33705         2.52783
O          9.85540        17.17625        -2.49650
H          8.95509        16.85258        -2.75344
O          8.51883         1.38369        -1.88336
H          9.09026         1.97304        -2.42810
O         20.25217        12.28527         2.53133
H         20.80055        11.85561         3.22073
O          8.69234         7.67919        -2.48679
H          8.73401         8.61992        -2.78815
O          9.56212        10.22583        -2.23699
H         10.38738        10.16709        -2.76356
H          0.41862         1.44816        -0.12316
H          0.36199         3.89873        -0.39400
H          2.52918         0.22720         0.28811
H          0.31623         5.86769         0.06606
H          0.30284         8.30508        -0.08333
H          0.35040        10.24235        -0.66230
H          0.35364        12.67692        -0.49302
H          0.39961        14.64073         0.78458
H          0.36586        17.03327         0.07750
H          1.56243        18.74111        -1.26355
H          4.99835         0.27382         0.47110
H          3.61472        19.88116        -1.99496
H          7.40382         0.24347         0.42088
H          6.11312        20.10480        -1.89735
H         10.09996         0.16279        -0.25970
H          8.74659        20.31283        -1.36235
H         12.53058         0.25384         0.31924
H         11.26169        20.27695        -0.40881
H         15.52718         2.47110         1.42760
H         13.66080        20.28141        -0.45162
H         17.64481         0.05954        -0.56102
H         16.04255        20.23422         0.26201
H         19.66018         0.29421        -0.23282
H         18.33814        20.19393         1.00874
H         22.02195         0.30906        -0.30653
H         20.61181        20.17667         1.88268
H         24.45401         0.30187        -0.51020
H         23.27560        20.31353         1.08196
H         26.80687         0.39751        -1.23726
H         25.64328        20.31380         0.50018
H         29.09662         0.52075        -2.11788
H         27.99656        20.32788        -0.10549
H         31.08425         1.85760        -2.76681
H         32.21118         4.06033        -2.97083
H         32.25679         6.48204        -2.58103
H         32.32544         8.35125        -2.16390
H         32.50265        10.69930        -1.45560
H         32.94058        12.41343        -0.05682
H         32.80833        14.84977        -0.31049
H         32.37076        16.57465        -1.64376
H         30.26630        20.30628        -1.05614
H         32.12095        18.99643        -2.08325
