         276
 CSIRO Nanostructure Databank - Neutral Graphene Oxide Data Set
C        -10.85730         0.63727        -1.84876
C        -10.21996         1.68562        -1.04926
C         -8.71831         0.72349         0.34764
C         -7.61678         1.50096         0.49018
C         -6.37892         0.81212         1.05148
C         -5.09968         1.56750         0.70375
C         -3.79442         0.84914         0.76286
C         -2.54424         1.58917         1.11424
C         -1.26949         0.84332         1.33698
C         -0.01340         1.53554         0.84515
C          1.28134         0.82664         1.23132
C          2.47000         1.52278         0.62522
C          3.71535         0.76777         0.30415
C          5.03588         1.49484         0.31779
C          6.18423         0.82750        -0.38541
C          7.53305         1.55948        -0.58417
C          8.60054         0.83095         0.34800
C         10.01806         1.49290         0.23866
C         10.91849         0.75818        -0.72824
C         -9.69868         2.89045        -1.36897
C         -8.87003         3.68905        -0.34107
C         -7.49550         2.91912        -0.08956
C         -6.46044         3.79188         0.65422
C         -5.10495         3.07052         0.89564
C         -3.76862         3.76410         0.73211
C         -2.48983         3.01674         0.74231
C         -1.26588         3.71165         0.80815
C         -0.04243         3.04374         1.02118
C          1.23492         3.77197         1.17440
C          2.53081         2.98619         0.96043
C          3.77137         3.72536         0.44945
C          5.07652         2.94429         0.63442
C          6.32350         3.73153         0.30754
C          7.51386         3.06994        -0.31339
C          8.85849         3.72151        -0.29070
C          9.97243         2.97786        -0.07025
C         -8.65959         5.12799        -0.90435
C         -7.52263         5.92767        -0.28929
C         -6.28648         5.10409        -0.11179
C         -4.97191         5.77285        -0.24137
C         -3.70217         5.12543         0.16030
C         -2.50796         5.72035        -0.12632
C         -1.27903         5.17090         0.50443
C          0.00478         5.91266         0.37599
C          1.27524         5.26734         0.89516
C          2.60149         5.94247         0.70070
C          3.84226         5.12016         1.09923
C          5.14631         5.89080         0.87063
C          6.39055         5.04389         1.08896
C          8.00051         6.00694        -0.93138
C          8.97183         5.15592        -0.60338
C         -7.47718         7.28212        -0.29900
C         -6.21211         8.04068        -0.07149
C         -4.93847         7.26012        -0.12643
C         -3.69006         7.90987        -0.61742
C         -2.44906         7.07980        -0.74592
C         -1.12340         7.84800        -0.97048
C          0.12296         6.93254        -0.74833
C          1.42507         7.74559        -0.64426
C          2.71082         6.91962        -0.48548
C          3.99736         7.81383        -0.53819
C          5.19607         7.22692         0.21174
C          6.55960         7.86404        -0.13428
C          7.24048         7.04910        -1.23683
C         -6.07117         9.48988        -0.36986
C         -4.85733        10.09953        -0.43863
C         -3.58921         9.37708        -0.42864
C         -2.36423         9.93069        -0.15799
C         -1.10862         9.19125        -0.24070
C          0.07749         9.79882         0.05862
C          1.39058         9.18378        -0.23688
C          2.66000         9.84263         0.16082
C          3.86129         9.24826        -0.06515
C          5.13800         9.96267        -0.11282
C          6.32002         9.34901        -0.36403
C        -10.76885        -0.68597        -1.56985
C         -9.98535        -1.35729        -0.43088
C         -8.61483        -0.65078        -0.26343
C         -7.49436        -1.46204         0.31365
C         -6.30176        -0.72007         0.81520
C         -4.98079        -1.43387         0.68647
C         -3.70875        -0.65223         0.65373
C         -2.41868        -1.39663         0.81119
C         -1.25465        -0.66967         1.40049
C          0.01589        -1.42756         1.61109
C          1.31618        -0.65523         1.47474
C          2.47015        -1.40384         0.85105
C          3.82313        -0.68952         0.75332
C          4.80518        -1.45580        -0.18354
C          6.13643        -0.67795        -0.39028
C          7.44753        -1.36767        -0.26325
C          8.59082        -0.66944        -0.06707
C          9.93101        -1.39621         0.01210
C         10.91987        -0.57990        -0.80144
C         -9.79206        -2.84054        -0.68987
C         -8.64761        -3.52204        -0.38398
C         -7.47263        -2.81149         0.13276
C         -6.22927        -3.57748         0.41746
C         -4.94268        -2.83970         0.07429
C         -3.65033        -3.62929         0.39681
C         -2.38031        -2.90930         0.75774
C         -1.23249        -3.67586         1.29241
C          0.01598        -2.94505         1.55657
C          1.31665        -3.70774         1.30019
C          2.48122        -2.90138         0.78768
C          3.79143        -3.59125         0.59728
C          4.92218        -2.91241         0.24906
C          6.16437        -3.58293        -0.29769
C          7.44916        -2.84627         0.12312
C          8.67810        -3.55186        -0.42698
C          9.84098        -2.81843        -0.48909
C         -8.55806        -4.97354        -0.55500
C         -7.46892        -5.72392        -0.23704
C         -6.23644        -5.05859         0.28379
C         -4.90746        -5.76420         0.02623
C         -3.70152        -5.08674         0.66423
C         -2.53463        -5.76260         0.94316
C         -1.25415        -5.07332         1.20146
C          0.00534        -5.80647         1.08987
C          1.20347        -5.12765         0.94674
C          2.36616        -5.67915         0.12832
C          3.72392        -5.07287         0.50952
C          4.95958        -5.80312         0.07753
C          6.31315        -5.07777         0.11971
C          7.43653        -5.70983        -0.68923
C          8.60541        -4.92165        -0.83063
C         -7.52017        -7.24439        -0.40958
C         -6.12412        -7.92819        -0.55160
C         -5.13508        -7.22871         0.44396
C         -3.85153        -8.00295         0.73281
C         -2.56896        -7.25125         1.02085
C         -1.28745        -8.04038         0.96944
C          0.06300        -7.33673         1.04986
C          1.08174        -7.86670         0.04436
C          2.45903        -7.22600         0.14040
C          3.42952        -7.72216        -0.94695
C          4.79814        -6.99913        -0.82973
C          6.05862        -7.71480        -1.24051
C          7.36344        -7.05084        -1.04771
C         -6.17309        -9.42730        -0.32074
C         -5.05777       -10.12626        -0.06304
C         -3.80719        -9.46978         0.41565
C         -2.48115       -10.08790         0.20399
C         -1.31672        -9.44610         0.46455
C          0.00630       -10.18290         0.32960
C          1.08912        -9.32143        -0.30281
C          2.39356        -9.95332        -0.64883
C          3.52619        -9.23680        -0.89541
C          4.79186        -9.85831        -1.26317
C          5.94333        -9.17211        -1.47334
O         -0.85770         6.17475         1.51882
O         -1.98764         1.38551         2.47182
O          1.81980         6.23460         1.88041
O          5.26969         1.98273         1.69261
O          5.30040        -6.79394        -2.17675
O         -2.64009        -3.35217        -0.63312
O         -5.45437         7.69432         1.16199
O          1.55702         0.29353         2.55195
O         -5.57449         5.09411        -1.40719
O         -4.44997         3.60111         2.07060
O          2.79234         1.14214        -0.75237
O          6.54545         3.80873        -1.13189
O          0.58583        -8.29058        -1.24003
O          2.05343         3.27530         2.28617
O          5.88805         0.12567        -1.61470
O         -6.27007        -4.41474         1.60247
O          4.46311        -5.89139         1.45415
O          4.26977        -1.67003        -1.45232
O          0.84987        -3.44264         2.65215
O          7.25542         5.29278         1.89638
O          2.04511        -2.07593        -0.35797
O          8.14617         0.92688         1.62799
O         -4.05531        -8.99025         1.79691
O         -3.33377         7.29330        -1.90440
O         -2.83549        -0.90622        -0.50004
O         -5.65740        -1.38615         1.97051
O          5.04367         7.13967         1.64936
O        -10.00662         1.28746         0.30165
O         -4.39814         1.26587        -0.52884
O          1.52378         8.74602        -1.68544
O         -0.84564        -1.06928         2.73841
O         -1.96571        -7.78925         2.24862
O         -0.03209         1.32722        -0.60617
H         -0.81534         1.77457        -0.99237
O         -5.82129        -7.14609         1.71658
H         -5.50184        -7.90723         2.25983
O          3.63008         3.84526        -0.97126
H          3.43239         2.95400        -1.34671
O          2.76106         6.05107        -1.62446
H          3.45238         6.39527        -2.23903
O          4.38200         7.90704        -1.93359
H          3.71149         8.48172        -2.36901
O         10.59472         1.32902         1.56423
H          9.80230         1.38656         2.16837
O          0.45603       -10.55992         1.64071
H          0.56492        -9.73456         2.17049
O          4.42291        -0.69706         2.05327
H          3.97246        -0.04913         2.63805
O         -8.34502         5.05484        -2.30330
H         -7.41574         4.73891        -2.38515
O          6.05506        -3.54867        -1.72640
H          5.36209        -2.85591        -1.96481
O          2.04727        -5.19068        -1.19141
H          2.09346        -5.93602        -1.84542
O          7.50606        -2.82075         1.56014
H          8.34730        -2.38412         1.82769
O         -9.57356         3.85688         0.88398
H         -9.78988         2.96738         1.24214
O          0.57891        -7.73157         2.36725
H         -0.16211        -7.57873         3.00308
O         -4.97469        -2.70098        -1.36767
H         -4.10260        -2.31130        -1.62786
O          0.19822         6.09799        -1.91838
H          0.12005         6.71194        -2.68742
O         -7.00733         4.11678         1.93463
H         -6.26151         4.26153         2.55959
O         -5.70653        -7.86026        -1.92689
H         -5.45508        -6.93412        -2.15357
O         -6.52080         0.99583         2.48602
H         -6.16144         0.19698         2.93673
O         -6.90655         2.66249        -1.38467
H         -7.39948         1.92981        -1.81692
O         10.33565        -1.43741         1.40253
H         10.53560        -0.49514         1.66274
O         -8.12795        -0.33477        -1.62605
H         -7.97274        -1.18527        -2.09200
O          7.98007         1.39834        -1.91407
H          7.35834         0.76241        -2.35566
O          3.00627        -7.74430         1.36327
H          2.38890        -7.54323         2.10517
O          2.88535        -7.41409        -2.24897
H          3.65459        -7.28582        -2.85606
O          7.41127         7.82853         1.01390
H          6.84343         7.66162         1.80460
O         -1.06037         8.21455        -2.36774
H         -1.98292         8.15609        -2.71996
O        -10.74998        -1.26247         0.78651
H        -10.96016        -0.31119         0.92870
O          6.82309        -5.17925         1.45141
H          6.05681        -5.21684         2.07148
O         -8.22332        -7.79902         0.70672
H         -7.70652        -7.55561         1.51066
O         -4.60840        -5.62423        -1.39060
H         -4.56624        -4.65819        -1.60266
O          3.86587         4.89855         2.51286
H          3.14116         5.43118         2.91870
H         11.61462        -1.10345        -1.47703
H         11.62491         1.34602        -1.33512
H         10.95090         3.48510        -0.08088
H         10.00204         5.55907        -0.57600
H          6.95072         7.24170        -2.28503
H          7.22328         9.96791        -0.47826
H          5.09512        11.06302        -0.08024
H          2.61817        10.89835         0.47095
H          0.07537        10.81559         0.48252
H         -2.30196        10.99810         0.10661
H         -4.81289        11.19447        -0.54276
H         -6.98685        10.09609        -0.44188
H         -8.37780         7.85970        -0.56007
H         -9.62690         5.67947        -0.80678
H         -9.78246         3.29282        -2.38968
H        -11.41833         0.94967        -2.74416
H        -11.30268        -1.37522        -2.24528
H        -10.67535        -3.40607        -1.02659
H         -9.45240        -5.47790        -0.95349
H         -8.12155        -7.48268        -1.32387
H         -7.10593        -9.95107        -0.57713
H         -5.08374       -11.22675        -0.02779
H         -2.45312       -11.11751        -0.18638
H         -0.14360       -11.12518        -0.25433
H          2.42964       -11.05447        -0.65907
H          4.79636       -10.95283        -1.38329
H          6.86031        -9.71802        -1.74136
H          8.26670        -7.57719        -1.39837
H          9.49699        -5.37437        -1.29655
H         10.75708        -3.27753        -0.89748
