         404
 CSIRO Nanostructure Databank - Neutral Graphene Oxide Data Set
C          1.36297         3.36752         0.16101
C          0.15180         4.02435         0.00316
C          1.26701         6.20211        -0.04348
C          0.08977         5.42113        -0.08495
C          1.24128         7.64929        -0.12942
C          0.02160         8.37061        -0.18715
C          1.20445        10.50906        -0.23162
C          0.00395         9.75010        -0.21849
C          1.18155        11.96099        -0.28712
C         -0.01941        12.68134        -0.13010
C          1.14325        14.80326        -0.39521
C         -0.03270        14.06924        -0.16867
C          1.10037        16.29073        -0.44506
C         -0.06331        17.03695         0.10071
C          1.31844        19.03876         0.58783
C          0.02939        18.31475         0.50887
C          1.38640        20.54735         0.89374
C          0.17586        21.37156         1.04244
C          1.51246        23.43455         1.06994
C          0.25099        22.72436         1.12920
C          1.61961        24.83215         1.37567
C          0.44813        25.55794         1.86453
C          1.63267        27.71444         1.83809
C          0.45178        26.88086         2.13314
C          1.43009        29.09647         1.26308
C          0.09482        29.74545         1.14134
C          1.24147        31.88271         0.70257
C          0.04112        31.07950         0.92444
C          1.23309        33.31364         0.78564
C          0.09162        34.01637         1.27523
C          1.28934        36.13112         1.19748
C          0.12353        35.37359         1.49960
C          1.35161        37.54187         1.47692
C          3.79458         3.42654         0.45717
C          2.58445         4.10037         0.24029
C          3.72063         6.30071         0.07712
C          2.52205         5.53927         0.09802
C          3.70111         7.69715        -0.02686
C          2.45938         8.39023        -0.11989
C          3.67165        10.56720        -0.35909
C          2.44165         9.82636        -0.20211
C          3.63884        11.97001        -0.59270
C          2.39168        12.68310        -0.49488
C          3.61755        14.82456        -0.75305
C          2.36971        14.10931        -0.56924
C          3.66042        16.23351        -0.61993
C          2.41413        17.02044        -0.50413
C          3.71009        19.09938        -0.06710
C          2.51461        18.41751        -0.00720
C          3.77238        20.52988         0.15712
C          2.62630        21.25433         0.52925
C          3.90920        23.34763         0.56170
C          2.66274        22.68120         0.68800
C          4.01477        24.71210         0.98111
C          2.87000        25.49348         1.32921
C          4.01198        27.83780         1.03409
C          2.97960        26.97594         1.78555
C          3.81575        29.09720         0.44873
C          2.44338        29.70314         0.30783
C          3.59353        31.95133         0.02252
C          2.44230        31.22231         0.38607
C          3.61065        33.37118         0.04058
C          2.41072        34.06125         0.45147
C          3.55533        36.29019         0.22771
C          2.39810        35.47427         0.62136
C          3.67271        37.67199         0.72307
C          2.49800        38.27002         1.28597
C          6.33434         3.37133         0.38239
C          5.07678         4.11730         0.59229
C          6.21615         6.36406        -0.20389
C          5.02030         5.62249         0.28392
C          6.20815         7.71686        -0.15913
C          4.96484         8.48932         0.22140
C          6.08423        10.56179        -0.76615
C          4.92503         9.89250        -0.35880
C          6.07763        11.96717        -1.02857
C          4.84943        12.67493        -0.86655
C          6.04390        14.81075        -1.21892
C          4.83321        14.10469        -0.95939
C          6.03097        16.22364        -1.11379
C          4.88083        16.92236        -0.70710
C          6.13507        19.12642        -0.85934
C          5.01578        18.34611        -0.20657
C          6.12805        20.56785        -0.71192
C          4.99621        21.23319        -0.14617
C          6.28786        23.32352        -0.15167
C          5.06306        22.63153         0.09724
C          6.40212        24.68608         0.27135
C          5.35065        25.20452         1.02669
C          6.30533        27.80443         0.10897
C          5.33251        27.35845         1.00163
C          6.15780        29.14096        -0.36225
C          4.91837        29.78775        -0.12018
C          6.09544        31.99881        -0.61738
C          4.78576        31.21761        -0.44788
C          6.08778        33.43041        -0.29044
C          4.85065        34.08338        -0.14606
C          6.11857        36.25921         0.09288
C          4.85518        35.55409        -0.14303
C          6.11711        37.67381         0.34252
C          4.88572        38.34276         0.62638
C          8.79687         3.35364         0.13185
C          7.60064         3.84348         0.74309
C          8.72664         6.30704        -0.49525
C          7.40635         5.70128        -0.83763
C          8.72625         7.70879        -0.56675
C          7.48858         8.50355        -0.21730
C          8.57704        10.47817        -1.43733
C          7.33440         9.78957        -0.99724
C          8.54604        11.96439        -1.63786
C          7.28209        12.68038        -1.37590
C          8.53329        14.81581        -1.49816
C          7.28524        14.09213        -1.43994
C          8.52035        16.26897        -1.72897
C          7.20396        16.99778        -1.52918
C          8.42737        19.14402        -1.87641
C          7.23608        18.45212        -1.32541
C          8.38297        20.65837        -1.80737
C          7.27386        21.30857        -1.08783
C          8.64183        23.40354        -0.91820
C          7.39000        22.67795        -0.75300
C          8.67500        24.82385        -0.61421
C          7.54655        25.48263        -0.09695
C          8.59616        27.66709        -0.98573
C          7.41967        26.94362        -0.35307
C          8.60649        29.17532        -1.19828
C          7.34141        29.87679        -0.74919
C          8.61326        31.97852        -0.51341
C          7.36471        31.25716        -0.63151
C          8.59353        33.40035        -0.28271
C          7.33457        34.12119        -0.15464
C          8.55954        36.24266         0.42172
C          7.31228        35.52023         0.12227
C          8.58688        37.72495         0.40154
C          7.34535        38.38389         0.41899
C         11.21786         3.49898        -0.07940
C          9.97086         4.14578        -0.09643
C         11.16804         6.31811        -0.36086
C          9.93899         5.58370        -0.33061
C         11.16764         7.73582        -0.61268
C          9.93709         8.40617        -0.76480
C         11.18773        10.60892        -1.13745
C          9.90840         9.79752        -1.25857
C         11.11834        12.07895        -1.08062
C          9.87344        12.74806        -1.49417
C         10.96546        14.95431        -1.03218
C          9.77421        14.19934        -1.29704
C         10.92414        16.37696        -1.16488
C          9.76357        17.04426        -1.57042
C         10.96891        19.17826        -1.82866
C          9.75567        18.46031        -1.80226
C         10.96119        20.62688        -2.12952
C          9.66829        21.40859        -1.98844
C         11.08830        23.40207        -1.34857
C          9.75405        22.78585        -1.47488
C         11.15321        24.85573        -0.96123
C          9.87861        25.56786        -0.86107
C         11.10276        27.69465        -0.85633
C          9.88152        26.95670        -0.94825
C         11.03636        29.10783        -0.60759
C          9.85743        29.83365        -0.68066
C         11.08010        31.95400        -0.29125
C          9.83299        31.25983        -0.47691
C         11.07485        33.38732        -0.23678
C          9.82526        34.07942        -0.18105
C         11.05991        36.31290        -0.05763
C          9.84890        35.49898         0.22249
C         11.07844        37.73878         0.34242
C          9.82537        38.39738         0.48403
C         13.66017         3.55309         0.26927
C         12.44082         4.21824        -0.08047
C         13.65345         6.39662        -0.25457
C         12.40490         5.63121        -0.23603
C         13.59906         7.86455        -0.13558
C         12.38465         8.51650        -0.48624
C         13.48381        10.70603        -0.19063
C         12.36101         9.93079        -0.56740
C         13.43971        12.14559        -0.23938
C         12.21915        12.81784        -0.65867
C         13.37278        14.99148        -0.43025
C         12.18705        14.27423        -0.69064
C         13.37707        16.46870        -0.44650
C         12.11268        17.19031        -0.85636
C         13.46181        19.18906        -1.44172
C         12.21127        18.55647        -1.41471
C         13.53631        20.58218        -1.96001
C         12.28056        21.35083        -2.16129
C         13.58543        23.51793        -1.63752
C         12.27992        22.88174        -2.13157
C         13.61925        24.92314        -1.34412
C         12.39809        25.61991        -1.16311
C         13.60272        27.73663        -0.81637
C         12.35246        27.01437        -0.95089
C         13.54712        29.08386        -0.46577
C         12.26716        29.74231        -0.03134
C         13.51297        31.93576         0.02789
C         12.29236        31.24652        -0.16979
C         13.51496        33.36857         0.08392
C         12.30893        34.07606        -0.08685
C         13.58830        36.25099         0.21005
C         12.35951        35.54667        -0.15714
C         13.56978        37.67248         0.39713
C         12.31820        38.37831         0.44443
C         15.95215         3.64870         1.18674
C         14.83135         4.25089         0.55738
C         15.98661         6.49966         0.80826
C         14.92905         5.68037         0.20281
C         15.91514         7.92006         0.76631
C         14.72684         8.59955         0.26975
C         15.73756        10.81083         0.76248
C         14.65909        10.03549         0.27151
C         15.73801        12.22147         0.64765
C         14.58150        12.89481         0.11981
C         15.74140        15.10467         0.22760
C         14.58414        14.33847        -0.04900
C         15.83677        16.50226        -0.15371
C         14.66240        17.17651        -0.58236
C         15.97024        19.16493        -1.12754
C         14.69051        18.52409        -1.02286
C         16.06872        20.56366        -1.60437
C         14.82678        21.34603        -1.91916
C         16.03945        23.52756        -1.58736
C         14.78990        22.82786        -1.71686
C         16.14543        24.91330        -1.29451
C         14.87956        25.63620        -1.19775
C         16.14229        27.79344        -0.90922
C         14.84814        27.01427        -0.93883
C         16.05509        29.05058        -0.07199
C         14.75509        29.76607         0.01566
C         15.95271        31.90167         0.39795
C         14.74732        31.22609         0.16815
C         15.92941        33.32887         0.55551
C         14.73954        34.06656         0.35640
C         15.97726        36.18402         0.77643
C         14.75938        35.50460         0.44150
C         16.04333        37.63316         0.63718
C         14.80613        38.33688         0.55959
C         18.18439         3.78049         2.22422
C         17.05283         4.40598         1.60457
C         18.13989         6.61020         1.98265
C         17.04767         5.84721         1.47184
C         18.10799         8.03663         1.90371
C         16.95832         8.67089         1.35978
C         18.07340        10.94713         1.85848
C         16.81467        10.12472         1.48050
C         18.09513        12.35660         1.43957
C         16.91351        12.97106         0.99742
C         18.22631        15.18795         0.94456
C         16.87684        14.43804         0.87636
C         18.28297        16.60331         0.44977
C         17.07592        17.21422        -0.14595
C         18.49448        19.12934        -1.01000
C         17.15470        18.50687        -0.73252
C         18.60579        20.66720        -1.35272
C         17.29823        21.36455        -1.39891
C         18.98584        23.66944        -1.13747
C         17.19926        22.68311        -1.77374
C         18.65452        24.93033        -0.60082
C         17.39314        25.60871        -0.88518
C         18.49747        27.66315         0.00316
C         17.35345        26.97073        -0.53556
C         18.50742        29.09792         0.18956
C         17.29101        29.83455         0.09977
C         18.42966        31.91370         0.73899
C         17.22092        31.19604         0.42595
C         18.31629        33.25176         1.14724
C         17.11550        33.99923         0.98509
C         18.92491        36.46995         0.66693
C         17.06800        35.40394         1.18085
C         18.52598        37.70206         0.09063
C         17.25121        38.31590         0.37449
C         19.25233         4.51832         2.66741
C         20.37138         6.71552         2.98495
C         19.26383         5.94508         2.55378
C         20.38284         8.09032         2.83276
C         19.26856         8.79237         2.30052
C         20.52491        10.93571         2.01829
C         19.32069        10.20712         2.07207
C         20.54432        12.28973         1.71745
C         19.36766        13.03048         1.40805
C         20.66900        14.95367         0.49893
C         19.44689        14.38752         0.98520
C         20.78188        16.25548         0.10594
C         19.64681        17.18722         0.15891
C         20.92976        19.15738        -0.62801
C         19.72694        18.48883        -0.54672
C         20.99784        20.56512        -0.80181
C         19.86955        21.34565        -0.97821
C         20.79789        23.32119         0.36264
C         19.91418        22.76993        -0.60173
C         20.73535        24.67555         0.66309
C         19.68119        25.51095         0.19784
C         20.80776        27.64266         0.84269
C         19.65855        26.94026         0.39486
C         20.85251        29.02529         0.85320
C         19.70180        29.78697         0.53854
C         20.88606        31.94834         0.30745
C         19.70927        31.24677         0.60801
C         21.00440        33.34725         0.06253
C         20.18908        34.31173         0.62772
C         20.80915        36.27947        -0.82179
C         20.00403        35.69108         0.18297
C         20.53575        37.56989        -1.28729
C         19.41129        38.27520        -0.85847
O         11.36564        23.76859         0.03664
O          1.80946        28.92532         2.66736
O          5.65519        26.29002         1.83926
O          7.68998        16.64639        -2.87300
O         18.67200        19.63429        -2.37185
O          7.73272         9.73721        -2.39833
O         10.22065        21.11276        -3.30351
O         14.66778         5.94087        -1.21374
O          3.98042        36.13886        -1.16453
O         15.31503        28.98679         1.19090
O         17.35340        15.08459         2.10561
O          9.30735        12.37285        -2.80212
O          5.14719         5.14518         1.67512
O          7.26745         4.88266        -1.73480
O         18.17810        36.02995         1.77645
O         18.33056        23.29922        -2.30711
O          7.57981        27.08308        -1.84578
O         10.77247        10.00207        -2.41635
O         12.98501        20.79622        -3.32299
O         12.49682        17.09211         0.56691
O          8.04211        19.94641        -3.03538
O         19.42355        33.88978         1.74338
O         18.99142        17.40795         1.46538
O          1.57178        19.53979         1.95326
O          9.31501        35.69589         1.57481
O          5.24017        31.63528        -1.76522
O         11.65704        36.07307        -1.35993
O          1.57170        16.87253        -1.71481
O         15.65057        20.81767        -3.01193
O         17.03169        10.63184         2.83410
O         12.17747        29.48086         1.42414
H         13.09177        29.48519         1.78529
O          7.75144         4.85521         1.63542
H          6.85356         5.12220         1.96551
O          3.42380        26.89124         3.15945
H          3.22142        27.75841         3.57678
O          5.03977         8.69071         1.68671
H          4.82585         7.83140         2.11249
O         12.10919        23.34001        -3.49004
H         12.47664        22.64122        -4.07920
O          5.47458        18.18992         1.19129
H          4.69600        17.96309         1.74357
O         16.37268        28.28578        -2.27482
H         16.45072        27.50609        -2.86475
O          1.96609        29.33643        -1.02239
H          2.54336        29.77693        -1.68209
O          8.64884        29.35382        -2.64970
H          7.98251        28.73405        -3.02436
O          7.73152         8.92290         1.17049
H          6.85132         9.00171         1.62221
H          1.39195         2.27228         0.24922
H         -0.77951         3.44263        -0.04658
H         -0.89168         5.89867        -0.20179
H         -0.93545         7.83257        -0.19424
H         -0.96766        10.25958        -0.26049
H         -0.96621        12.15390         0.04299
H         -0.99029        14.58965        -0.03539
H         -1.04282        16.53852         0.13558
H         -0.86208        18.81942         0.90872
H         -0.79820        20.87307         1.14544
H         -0.68149        23.28818         1.26688
H         -0.46901        24.99044         2.07008
H         -0.44966        27.36823         2.53077
H         -0.82368        29.17221         1.33222
H         -0.93794        31.57914         0.90171
H         -0.81927        33.45727         1.52783
H         -0.75333        35.88523         1.92153
H          0.46155        38.02433         1.90621
H          3.80357         2.32807         0.40568
H          2.53295        39.33122         1.57284
H          6.29413         2.55599        -0.35359
H          4.93177        39.40181         0.92320
H          8.81382         2.30460        -0.20062
H          7.31805        39.47930         0.51956
H         11.24891         2.41240         0.09089
H          9.82125        39.48948         0.62260
H         13.61975         2.47257         0.47420
H         12.34385        39.45661         0.66350
H         15.94146         2.56412         1.37244
H         14.82259        39.43729         0.56605
H         18.18709         2.68567         2.32796
H         17.15519        39.37803         0.09402
H         20.11886         4.01858         3.12430
H         21.23948         6.20571         3.42704
H         21.26518         8.65441         3.16507
H         21.47973        10.42497         2.20525
H         21.51362        12.80563         1.71345
H         21.55116        14.30429         0.40998
H         21.72244        16.59863        -0.34656
H         21.85567        18.63961        -0.34002
H         21.96406        21.05378        -0.61180
H         21.56787        22.69269         0.83157
H         21.49274        25.09838         1.33694
H         21.70500        27.08023         1.13452
H         21.77550        29.53377         1.16509
H         21.75336        31.34065         0.00359
H         21.78975        33.66179        -0.64191
H         21.67307        35.73057        -1.22165
H         21.19834        38.01853        -2.04005
H         19.17729        39.25636        -1.29524
