         424
 CSIRO Nanostructure Databank - Neutral Graphene Oxide Data Set
C          1.24388         4.20396        -2.39536
C          0.20015         5.05198        -2.53326
C          1.12125         6.69778        -0.96138
C          0.10723         6.28460        -1.78821
C          1.13908         8.02742        -0.35693
C         -0.04215         8.69152        -0.04131
C          1.15611        10.74762         0.51644
C         -0.03085        10.02798         0.39872
C          1.16357        12.18082         0.81204
C         -0.04477        12.92608         0.78685
C          1.15593        14.96590         1.35199
C         -0.04755        14.27536         1.05704
C          1.15666        16.36137         1.69661
C         -0.07256        17.11510         1.76469
C          1.10173        19.18592         2.29963
C         -0.10100        18.45691         2.02603
C          1.13990        20.57830         2.37296
C         -0.07361        21.38130         2.46106
C          1.14506        23.27297         1.46314
C         -0.07136        22.69143         2.14049
C          1.13749        24.77702         1.31839
C         -0.05265        25.42391         0.96555
C          1.10443        27.54136         0.67495
C         -0.08005        26.78520         0.66449
C          1.11795        28.96305         0.29693
C         -0.04532        29.72634         0.21713
C          1.14427        31.73486        -0.51268
C          0.00509        31.12811        -0.06536
C          1.25591        33.23451        -0.68796
C         -0.00592        33.90999        -1.16223
C          1.29417        35.77447        -2.06168
C          0.03691        35.13872        -1.72539
C          1.35410        37.11360        -2.49026
C          3.66458         3.94823        -1.82141
C          2.31330         4.42414        -1.35431
C          3.64104         6.61978        -0.69959
C          2.33340         5.85940        -0.82779
C          3.61283         8.07405        -0.47299
C          2.39684         8.70994        -0.17769
C          3.62936        10.76060         0.43064
C          2.40691        10.08486         0.25665
C          3.64016        12.04930         1.21714
C          2.37149        12.84911         1.06398
C          3.63131        14.93736         1.55780
C          2.38850        14.24673         1.33374
C          3.62844        16.31294         1.88473
C          2.37344        16.99331         2.00156
C          3.65096        19.13030         2.60582
C          2.33262        18.38845         2.46697
C          3.60713        20.59316         2.50179
C          2.40928        21.28960         2.37680
C          3.58017        23.44836         2.05685
C          2.41188        22.71038         2.07351
C          3.60631        24.84565         1.66667
C          2.34466        25.51669         1.35766
C          3.55567        27.68892         1.05929
C          2.31334        26.89373         1.02134
C          3.59106        28.97899         0.32041
C          2.36635        29.59976         0.01191
C          3.66026        31.62341        -0.76457
C          2.35274        30.87660        -0.78860
C          3.68686        32.93588        -1.33536
C          2.47171        33.67341        -1.47548
C          3.70543        35.56046        -2.49977
C          2.49371        34.99277        -2.02274
C          3.76400        36.92661        -2.85053
C          2.56870        37.69495        -2.83168
C          6.09184         4.06281        -2.10858
C          4.84391         4.65673        -1.70306
C          6.03406         6.79951        -1.30286
C          4.87393         6.02047        -1.21807
C          6.02111         8.18714        -0.93618
C          4.84357         8.80106        -0.48078
C          6.08591        10.83832         0.21775
C          4.85710        10.15986         0.03823
C          6.10396        12.19938         0.72288
C          4.89162        12.86517         1.03760
C          6.11679        14.95873         1.42032
C          4.88547        14.23897         1.35433
C          6.12836        16.35186         1.76666
C          4.88484        17.03752         2.01097
C          6.12621        19.16064         2.23958
C          4.90588        18.42258         2.27046
C          6.14336        20.58156         2.39074
C          4.87982        21.30317         2.62218
C          6.12274        23.47610         2.10548
C          4.85601        22.82221         2.45242
C          6.09722        24.84928         1.76875
C          4.82328        25.52066         1.60835
C          6.11502        27.59209         0.94841
C          4.84941        26.96963         1.34488
C          6.12545        28.84989         0.11498
C          4.81853        29.60179         0.03865
C          6.11772        31.60767        -0.69939
C          4.85228        30.94494        -0.46860
C          6.13986        32.84419        -1.41576
C          4.92385        33.49363        -1.75823
C          6.20879        35.39086        -2.88141
C          4.88189        34.64833        -2.74293
C          6.22615        36.86912        -3.05143
C          5.02882        37.55744        -3.13518
C          8.52765         4.10753        -2.36462
C          7.27596         4.77384        -2.08841
C          8.47209         6.89351        -1.67103
C          7.27682         6.17974        -1.72133
C          8.52806         8.26432        -1.26493
C          7.23352         9.04998        -1.20344
C          8.50997        10.91256        -0.14631
C          7.31375        10.26241        -0.29382
C          8.60712        12.11257         0.76431
C          7.32720        12.90268         0.82270
C          8.59638        14.98447         1.25584
C          7.34681        14.27406         1.17028
C          8.61394        16.35691         1.63449
C          7.36038        17.04435         1.87341
C          8.58402        19.18049         2.19323
C          7.36794        18.46074         2.10572
C          8.59346        20.59756         2.21968
C          7.34359        21.30795         2.29371
C          8.56627        23.46037         2.03568
C          7.33958        22.75441         2.18088
C          8.56064        24.86752         1.79971
C          7.32258        25.55578         1.63433
C          8.56671        27.65507         1.13539
C          7.32184        26.95207         1.24647
C          8.58143        29.01221         0.66018
C          7.27096        29.76245         0.54692
C          8.56530        31.56851        -0.67469
C          7.33886        30.99951        -0.31738
C          8.59763        32.78318        -1.40152
C          7.40629        33.41531        -1.75083
C          8.66027        35.57423        -2.08183
C          7.46727        34.72093        -2.44918
C          8.69907        36.89213        -2.82321
C          7.49336        37.51571        -3.16353
C         10.98347         4.08911        -2.51430
C          9.73067         4.76540        -2.31182
C         10.95436         6.79754        -1.46132
C          9.74271         6.27034        -2.18710
C         10.99586         8.26136        -1.22400
C          9.74568         8.93619        -1.10251
C         11.03527        10.97398        -0.33490
C          9.73561        10.43359        -0.88790
C         11.04879        12.30058         0.20622
C          9.83496        12.95439         0.55316
C         11.06403        15.02685         1.03725
C          9.82803        14.31162         0.94464
C         11.07972        16.39186         1.47218
C          9.84617        17.04218         1.77289
C         11.08525        19.21412         2.04712
C          9.86176        18.41685         2.39524
C         11.06840        20.59504         2.04196
C          9.82541        21.32513         2.16429
C         11.02321        23.49666         2.16259
C          9.81954        22.75832         2.12374
C         11.04147        24.90999         1.93342
C          9.80111        25.57751         1.68210
C         11.03042        27.67664         1.29831
C          9.80447        26.97199         1.37052
C         10.99831        29.17402         1.15057
C          9.77132        29.66338         0.44444
C         11.09771        31.63063        -0.46636
C          9.84760        30.78260        -0.54900
C         11.12922        32.78577        -1.18471
C          9.91824        33.28597        -1.94623
C         11.14427        35.47883        -2.22478
C          9.95070        34.79453        -2.12064
C         11.16030        36.88522        -2.63653
C          9.94573        37.52711        -2.97461
C         13.45990         4.05879        -2.48638
C         12.19869         4.69196        -2.24955
C         13.50487         6.81870        -1.75110
C         12.21959         6.03770        -1.60993
C         13.47940         8.18656        -1.09466
C         12.22603         8.89634        -0.97809
C         13.49170        10.89554        -0.20876
C         12.23454        10.27044        -0.51339
C         13.51961        12.25289         0.22495
C         12.29071        12.96290         0.42525
C         13.52179        15.00369         1.07960
C         12.29334        14.33668         0.83779
C         13.54738        16.38433         1.38789
C         12.33020        17.06380         1.59807
C         13.51731        19.24484         1.42214
C         12.39780        18.47913         2.12502
C         13.54035        20.69890         1.83521
C         12.33167        21.33240         2.01462
C         13.58266        23.52993         2.43829
C         12.28950        22.76403         2.36864
C         13.53712        25.05922         2.46842
C         12.26064        25.65070         1.90209
C         13.49728        27.80006         1.53655
C         12.25810        27.03248         1.58130
C         13.50640        29.14746         1.10038
C         12.29022        29.79036         0.68870
C         13.56519        31.77455        -0.01616
C         12.32093        31.04252         0.08539
C         13.59763        32.99399        -0.70465
C         12.44988        33.37027        -1.60667
C         13.60618        35.50994        -2.05969
C         12.40216        34.83489        -1.93862
C         13.62535        36.89027        -2.52658
C         12.39554        37.53522        -2.79372
C         15.91037         4.03686        -2.46245
C         14.66596         4.64421        -2.13230
C         15.96481         6.69468        -1.39962
C         14.68077         5.92210        -1.31242
C         15.97771         8.02380        -0.69158
C         14.67692         8.80310        -0.77725
C         15.96015        10.85146        -0.16988
C         14.71430        10.18385        -0.35505
C         15.99219        12.21273         0.24892
C         14.76664        12.87353         0.49442
C         16.08104        14.93511         1.26747
C         14.76232        14.21760         1.08825
C         16.03613        16.40658         1.38845
C         14.83438        17.09298         1.47704
C         16.03265        19.26902         1.54940
C         14.83653        18.53425         1.56888
C         16.01887        20.72153         1.61804
C         14.79606        21.42291         1.83642
C         16.01831        23.55869         1.86420
C         14.81831        22.82761         2.02828
C         16.00043        25.01128         1.86205
C         14.78412        25.71406         1.92878
C         15.97779        27.83759         1.69194
C         14.75760        27.11753         1.73226
C         15.92727        29.31740         1.66931
C         14.72474        29.91069         1.06222
C         16.01838        31.96720         0.56652
C         14.77041        31.21824         0.57082
C         15.96829        33.40654         0.07885
C         14.80121        33.74195        -0.82308
C         16.13076        35.45485        -2.09750
C         14.82931        34.89143        -1.60713
C         16.09119        36.92925        -2.42773
C         14.85115        37.55846        -2.68100
C         18.36999         4.09478        -2.63478
C         17.11299         4.71740        -2.31998
C         18.36651         6.83299        -1.88530
C         17.12166         6.10604        -1.86642
C         18.32998         8.33594        -1.79306
C         17.17342         8.88123        -1.00351
C         18.42540        10.96130        -0.60986
C         17.19051        10.19207        -0.57765
C         18.43832        12.29233        -0.19254
C         17.25692        12.93937         0.30755
C         18.50733        15.05684         0.70670
C         17.30684        14.28570         0.74853
C         18.53119        16.42911         1.00210
C         17.34163        17.09909         1.65596
C         18.48837        19.30298         1.34031
C         17.28701        18.59169         1.45932
C         18.48805        20.74202         1.40049
C         17.24225        21.43925         1.56290
C         18.47463        23.59439         1.56965
C         17.23933        22.86644         1.64674
C         18.46823        25.02060         1.65722
C         17.22306        25.73033         1.72402
C         18.45137        27.89477         1.81776
C         17.20949        27.15544         1.71255
C         18.44584        29.31133         1.96937
C         17.19853        30.12942         1.77833
C         18.41044        32.32768         1.07600
C         17.19464        31.49407         1.14140
C         18.48110        33.45710         0.18518
C         17.28724        33.93201        -0.44756
C         18.55385        35.74532        -1.51730
C         17.32808        35.04684        -1.27446
C         18.54790        36.97504        -2.26040
C         17.30039        37.58036        -2.62552
C         19.54557         4.78343        -2.53231
C         20.80026         6.91769        -2.13474
C         19.55725         6.18400        -2.18560
C         20.84303         8.22470        -1.72908
C         19.65064         8.96132        -1.41282
C         20.91204        10.95418        -0.64199
C         19.66311        10.26799        -0.93497
C         20.93956        12.26751        -0.35472
C         19.69350        13.11246        -0.42057
C         20.93296        15.22525         0.07110
C         19.81563        14.31863         0.51538
C         20.88588        16.55682         0.26678
C         19.71664        17.19922         0.83778
C         20.93003        19.35428         1.06443
C         19.72543        18.59698         1.10450
C         20.92315        20.72252         1.19543
C         19.70665        21.45427         1.33722
C         20.90784        23.64832         1.40481
C         19.70694        22.89877         1.43319
C         20.90191        25.02311         1.55546
C         19.69103        25.73855         1.69783
C         20.85410        27.85212         2.30805
C         19.67695        27.17584         1.91799
C         20.80706        29.19212         2.65886
C         19.60395        29.89525         2.48944
C         20.74686        32.83489         1.71448
C         19.54739        32.11833         1.87737
C         20.85002        33.79622         0.72797
C         19.71222        34.14798        -0.03416
C         20.96861        35.96306        -1.23287
C         19.76285        35.28021        -0.93663
C         20.96578        37.10376        -2.02924
C         19.76495        37.63254        -2.51197
O          4.89183        22.21132         3.78196
O         11.50666         6.04920        -0.33091
O         19.55163        31.21638         2.94528
O          7.10327        34.72132        -3.86081
O          4.15145        27.77837         2.39927
O          3.00375         5.90572         0.46287
O         16.30410        29.99370         2.93628
O          2.96584        18.58406         3.78500
O         15.45952        14.23796         2.40350
O         12.97618        22.99436         3.67148
O         15.70564        34.20604         1.29008
H         16.35015        33.92386         1.97407
O          1.49809        33.75291         0.67925
H          1.51920        34.73212         0.61926
O         12.74772        32.70217        -2.91393
H         13.58650        33.09351        -3.24603
O          8.78397        11.55392         2.12794
H          7.92799        11.15415         2.39437
O         13.52681        25.46459         3.87524
H         13.13181        24.70779         4.37325
O         13.18984        19.21399        -0.00498
H         13.90693        19.67706        -0.48671
O          1.12081        22.77004         0.07683
H          1.04259        21.79324         0.12674
O          7.05928         9.58471        -2.56283
H          7.82584        10.19125        -2.71745
O          6.96167        30.19039         1.89936
H          7.76337        30.60158         2.28549
O          2.20718        30.43853        -2.20547
H          3.01163        29.92433        -2.43393
O         16.09893         7.68044         0.75414
H         16.05262         8.52173         1.25921
O         17.59144        16.90707         3.10742
H         16.78068        17.19224         3.58193
O          4.61214        34.01351        -4.03517
H          5.49626        33.83062        -4.43485
O          3.67544        11.62818         2.63785
H          2.86690        11.09671         2.80196
O         10.84134        29.68800         2.54211
H         11.57502        29.30900         3.07397
O          6.40077        28.41214        -1.25657
H          7.36158        28.22233        -1.32864
O         20.17562        13.77922         1.82199
H         20.11776        14.50944         2.47402
O          1.95731         3.56871        -0.22135
H          2.43171         3.94386         0.55583
O         10.02622        32.67160        -3.27948
H         10.97871        32.73650        -3.54440
O          9.97489        30.10314        -1.85743
H          9.99040        30.81923        -2.54363
O         12.73549        18.38451         3.53638
H         11.91127        18.09573         4.00126
O         13.68899         7.05031        -3.17511
H         12.88076         7.47967        -3.52680
O          9.96904        18.16896         3.87388
H          9.68608        18.99409         4.32525
O         19.59056        13.65113        -1.77321
H         19.51381        12.89294        -2.39006
O          9.59398        11.01470        -2.25049
H         10.38665        10.74751        -2.76413
O         16.33080        34.77957        -3.40220
H         17.12614        35.18311        -3.81251
O         14.47757         5.53810         0.06927
H         14.93830         6.19765         0.64185
O          9.91656         6.78813        -3.55718
H          9.11775         6.53876        -4.06920
O         18.07825         8.78122        -3.19113
H         18.79890         8.40545        -3.74129
O          8.44586        35.91059        -0.66507
H          9.18670        36.48825        -0.38278
H          1.28811         3.27500        -2.98250
H         -0.59599         4.83057        -3.25905
H         -0.76767         6.92920        -1.95303
H         -1.00583         8.17455        -0.14880
H         -0.99428        10.50446         0.62347
H         -0.99547        12.42991         0.55270
H         -1.00509        14.81090         1.04099
H         -1.02371        16.60811         1.55841
H         -1.06054        18.99235         2.00003
H         -0.98392        20.91156         2.86233
H         -0.98080        23.29572         2.26816
H         -0.98629        24.84846         0.89724
H         -1.03453        27.25304         0.38765
H         -1.01645        29.28659         0.48270
H         -0.90688        31.71590         0.11515
H         -0.97712        33.45064        -0.92903
H         -0.89463        35.67135        -1.97080
H          0.43015        37.70890        -2.52571
H          3.70996         2.91664        -2.20367
H          2.61061        38.75521        -3.11940
H          6.09691         3.00441        -2.40824
H          5.04009        38.64367        -3.31084
H          8.50558         3.02038        -2.53580
H          7.51430        38.56418        -3.50034
H         10.96015         3.04378        -2.85980
H          9.98420        38.53591        -3.41353
H         13.46707         3.08914        -3.00924
H         12.40850        38.57958        -3.14036
H         15.91241         3.01862        -2.88197
H         14.84878        38.61098        -3.00386
H         18.36881         3.04128        -2.95074
H         17.30935        38.61245        -3.00789
H         20.50227         4.29067        -2.75880
H         21.73276         6.38570        -2.37226
H         21.82210         8.71456        -1.63467
H         21.84774        10.37813        -0.63161
H         21.89747        12.75294        -0.12042
H         21.83114        14.77415        -0.37429
H         21.73917        17.17619        -0.04279
H         21.89464        18.84247         0.94969
H         21.88327        21.25412         1.17461
H         21.87410        23.14193         1.28343
H         21.86112        25.55772         1.54421
H         21.79738        27.30250         2.42200
H         21.68696        29.70389         3.06867
H         21.59562        32.60570         2.37144
H         21.80044        34.32771         0.59377
H         21.92636        35.59716        -0.84003
H         21.91360        37.61468        -2.24928
H         19.76484        38.57125        -3.08393
