         661
 CSIRO Nanostructure Databank - Neutral Graphene Oxide Data Set
C          5.81124        31.72378        -0.77375
C          5.83091        33.06949        -0.71963
C          8.24668        27.42662         0.03269
C          8.20398        28.78837         0.00840
C          6.91914        29.58562        -0.06318
C          8.32288        31.67013        -0.60353
C          7.05728        30.87879        -0.90451
C          8.31373        33.12392        -0.77049
C          7.07221        33.83544        -0.75025
C          8.28528        35.97276        -0.66437
C          7.06830        35.22585        -0.67311
C          8.29827        37.36427        -0.37628
C         10.75176        23.08623         0.31842
C         10.72412        24.52227         0.25438
C          9.51040        25.25822         0.16756
C         10.71533        27.37136         0.28620
C          9.48732        26.66679         0.17181
C         10.74398        28.85177         0.35072
C          9.42654        29.59563         0.21839
C         10.74733        31.78144         0.08127
C          9.45526        31.01814        -0.19242
C         10.75834        33.05567        -0.73382
C          9.52725        33.83635        -0.87516
C         10.71318        36.08026        -0.90656
C          9.51813        35.27459        -0.90192
C         10.72623        37.37945        -0.40002
C          9.50254        38.07012        -0.15039
C         10.75464        40.16567         0.36721
C          9.55057        39.46695         0.18831
C         10.80555        41.57940         0.45185
C         13.23857        18.82052         0.74662
C         13.21081        20.22621         0.69461
C         11.98378        20.94401         0.59432
C         13.24036        23.04573         0.29858
C         11.94129        22.34432         0.41821
C         13.24541        24.55643         0.30703
C         11.94455        25.25614         0.34498
C         13.18038        27.42265         0.55026
C         11.92292        26.65413         0.36371
C         13.22501        28.72663        -0.22582
C         11.97798        29.56443        -0.01645
C         13.22613        31.61399        -0.51392
C         12.00552        30.94607        -0.20085
C         13.25043        32.98152        -0.91440
C         11.93178        33.46806        -1.28580
C         13.22098        36.04062        -1.06420
C         11.97476        35.57221        -1.38867
C         13.30189        37.38244        -0.51920
C         12.03458        37.90634         0.14856
C         13.30138        40.18152         0.19480
C         12.03814        39.41170         0.38062
C         13.27222        41.65617         0.26869
C         12.01177        42.33323         0.45084
C         13.22266        44.47777         0.67358
C         12.01877        43.75241         0.53345
C         13.29296        45.87875         0.72048
C         15.74545        14.52457         0.65834
C         15.70281        15.95956         0.74735
C         14.48608        16.67766         0.76522
C         15.70244        18.82297         0.82688
C         14.46124        18.09414         0.78597
C         15.70260        20.24487         0.86684
C         14.46980        20.94967         0.76223
C         15.69523        23.08737         0.80211
C         14.48659        22.35420         0.66675
C         15.66679        24.53899         0.86334
C         14.48716        25.23041         0.74561
C         15.77083        27.40022         0.69944
C         14.46245        26.70743         0.84380
C         15.77648        28.77616         0.05397
C         14.44783        29.56091         0.17488
C         15.73374        31.67039        -0.37439
C         14.49909        30.83973        -0.70709
C         15.69649        33.15441        -0.56767
C         14.41488        33.76252        -0.99859
C         15.75021        35.95564        -1.29460
C         14.43734        35.21779        -1.35252
C         15.71249        37.45808        -1.12103
C         14.47333        38.08728        -0.58917
C         15.77776        40.25898        -0.18376
C         14.46869        39.59841        -0.56307
C         15.75803        41.62022         0.21916
C         14.49584        42.30274         0.39474
C         15.80056        44.43863         0.95560
C         14.47229        43.70169         0.84543
C         15.77535        45.90133         0.86939
C         14.52864        46.59373         0.79222
C         15.76011        48.73941         0.70128
C         14.55403        48.01068         0.70112
C         15.76900        50.14784         0.57634
C         18.25691        10.27559         0.16578
C         18.16991        11.66936         0.13574
C         16.96737        12.37820         0.39693
C         18.23014        14.50455         0.60136
C         16.93153        13.78702         0.52824
C         18.20410        15.99185         0.73334
C         16.92048        16.70895         0.75803
C         18.19314        18.84921         0.84370
C         16.93583        18.11145         0.79910
C         18.17998        20.26949         0.93995
C         16.93882        20.97576         0.93038
C         18.18722        23.13126         0.89350
C         16.92742        22.39709         0.94308
C         18.18690        24.52315         0.79768
C         16.94639        25.25852         1.26674
C         18.23638        27.44555         0.86785
C         16.93202        26.72579         0.88331
C         18.25929        28.94346         0.63126
C         16.94760        29.69486         0.49441
C         18.27862        31.72090        -0.20273
C         17.04561        30.90917        -0.47018
C         18.23908        33.22463        -0.07432
C         16.97981        33.90382        -0.62458
C         18.24197        36.02690        -0.56375
C         16.98260        35.24012        -0.87215
C         18.28240        37.47423        -0.99012
C         16.99922        38.21795        -0.96657
C         18.22373        40.29338        -0.31447
C         16.98935        39.59854        -0.42078
C         18.22461        41.65011         0.01190
C         17.00242        42.33576         0.31318
C         18.28110        44.44720         0.72399
C         17.03890        43.72427         0.62074
C         18.22671        45.86724         0.98367
C         17.01331        46.58822         0.91473
C         18.21438        48.75282         0.90517
C         17.02298        48.04102         0.86428
C         18.23581        50.16178         0.63773
C         16.97404        50.88032         0.51176
C         18.16776        53.03663         0.29241
C         16.96509        52.28605         0.38178
C         18.19534        54.42281         0.24815
C         20.81455         6.03328         0.38519
C         20.77201         7.44960         0.23276
C         19.54580         8.16292         0.21637
C         20.72064        10.25552        -0.25082
C         19.49418         9.55654         0.02043
C         20.68976        11.71088        -0.50894
C         19.37050        12.44608        -0.26632
C         20.64664        14.56223        -0.06582
C         19.45772        13.86924         0.07011
C         20.66801        16.05126        -0.00713
C         19.40014        16.76869         0.30514
C         20.67439        18.86268         0.80684
C         19.42415        18.18718         0.69862
C         20.65347        20.26258         1.02503
C         19.42865        20.97742         0.98768
C         20.67728        23.11987         0.89398
C         19.42675        22.40556         0.92538
C         20.69825        24.51642         0.65520
C         19.41859        25.23463         0.29426
C         20.64279        27.40437         0.38947
C         19.47388        26.71280         0.59989
C         20.65090        28.83661         0.16161
C         19.48761        29.58025         0.13141
C         20.71138        31.70293        -0.43860
C         19.48321        31.01304        -0.17498
C         20.68225        33.10470        -0.69082
C         19.50713        33.84019        -0.62247
C         20.69654        35.99762        -1.44445
C         19.44548        35.24814        -1.05075
C         20.75330        37.46638        -1.19564
C         19.48668        38.14832        -1.00252
C         20.74066        40.35878        -0.68532
C         19.52582        39.52822        -0.38315
C         20.75542        41.66217        -0.24397
C         19.46963        42.46987        -0.21077
C         20.81542        44.50806         0.55118
C         19.50191        43.76447         0.56732
C         20.76737        45.84419         1.30598
C         19.46921        46.58221         1.33885
C         20.72901        48.75369         0.74659
C         19.49738        48.11629         1.39248
C         20.71434        50.12323         0.44837
C         19.45260        50.82515         0.43519
C         20.73421        52.97604         0.00824
C         19.42458        52.25896         0.10248
C         20.75569        54.43218         0.32701
C         19.45152        55.17939         0.39370
C         20.71357        57.32353         0.15966
C         19.51609        56.64078         0.24350
C         20.74382        58.74554         0.09314
C         23.33514         3.29576        -0.11639
C         22.21252         3.94134         0.40284
C         23.21625         6.18759         0.55638
C         22.04847         5.37079         0.49351
C         23.26284         7.51445         0.13981
C         21.99644         8.17840         0.03398
C         23.20675        10.26833        -0.52872
C         21.93671         9.56891        -0.23714
C         23.20181        11.78093        -0.57806
C         21.92714        12.50578        -0.40754
C         23.17326        14.69537        -0.48755
C         21.89326        13.88023        -0.31151
C         23.13194        16.06953         0.15134
C         21.94614        16.75897         0.26364
C         23.15452        18.89117         0.67204
C         21.91780        18.14932         0.65364
C         23.15667        20.24021         0.91187
C         21.92958        20.97386         1.40161
C         23.11400        23.15016         0.95041
C         21.91221        22.43668         1.02524
C         23.14666        24.55028         0.75962
C         21.90751        25.21422         0.57195
C         23.13964        27.36736         0.41039
C         21.88032        26.61202         0.00490
C         23.16128        28.83803         0.15391
C         21.90034        29.46144        -0.33953
C         23.29155        31.59969        -0.92614
C         21.93106        30.92148        -0.70295
C         23.22958        33.10084        -0.76454
C         21.94781        33.74131        -1.13967
C         23.29825        35.89737        -1.57295
C         21.96237        35.18278        -1.52544
C         23.19844        37.38654        -1.36250
C         21.97798        38.14490        -1.25976
C         23.22669        40.39124        -0.80935
C         21.96219        39.70337        -1.31133
C         23.21204        41.51710         0.13335
C         21.97492        42.31071         0.18575
C         23.25056        44.00861         1.34103
C         21.99358        43.54673         0.81394
C         23.21225        46.14481         1.53619
C         21.98846        46.70138         1.20562
C         23.21785        48.70578         0.51774
C         21.96707        48.04972         0.77281
C         23.21280        50.11972         0.24832
C         21.97286        50.82328         0.23893
C         23.21819        52.95477         0.14805
C         22.00472        52.23618         0.16109
C         23.20979        54.42119         0.15363
C         22.04445        55.13477         0.13025
C         23.21211        57.29577         0.66397
C         22.03869        56.62667        -0.07002
C         23.21721        58.80487         0.44541
C         21.94634        59.47828         0.08499
C         23.20307        61.50960        -0.50852
C         21.98243        60.84731        -0.22891
C         24.54405         3.86897        -0.57630
C         25.80344         6.08425        -0.79104
C         24.97093         5.15652        -0.17336
C         25.79118         7.49858        -0.45582
C         24.54305         8.19576        -0.09141
C         25.70851        10.37228        -0.27509
C         24.48908         9.57427        -0.27048
C         25.65349        11.83427        -0.45153
C         24.46830        12.50403        -0.37695
C         25.66045        14.72550        -0.07367
C         24.38064        13.94010         0.07072
C         25.68250        16.03045         0.27634
C         24.40195        16.73163         0.66365
C         25.72111        18.89687         0.69855
C         24.44247        18.20115         0.22031
C         25.66008        20.24488         0.97250
C         24.41741        21.00983         0.62198
C         25.67154        23.16272         1.26257
C         24.37122        22.40840         1.19633
C         25.65107        24.61028         0.99821
C         24.42517        25.26761         0.75633
C         25.61883        27.43602         0.64560
C         24.42930        26.67342         0.55642
C         25.60064        28.87039         0.50750
C         24.44421        29.56425         0.11641
C         25.64473        31.70081        -0.08985
C         24.44850        30.95255        -0.18547
C         25.63966        33.11028        -0.34210
C         24.41076        33.83093        -0.62114
C         25.62699        36.01783        -0.58184
C         24.44972        35.27126        -0.79263
C         25.69529        37.44334        -1.00072
C         24.46703        37.93688        -1.59038
C         25.72489        40.57711        -1.00704
C         24.44268        40.08986        -1.36040
C         25.79255        41.76744        -0.27292
C         24.55811        42.24706         0.36752
C         25.70351        44.44711         0.90806
C         24.50739        43.62412         0.86452
C         25.65858        45.84818         1.07210
C         24.45341        46.65669         1.09617
C         25.71397        48.61445         0.22713
C         24.43672        47.98539         0.61474
C         25.71095        50.09593        -0.09420
C         24.43247        50.83428         0.05221
C         25.68384        52.97125        -0.35073
C         24.44109        52.23521         0.02181
C         25.70210        54.45446        -0.19734
C         24.52258        55.11547         0.48045
C         25.70914        57.30753         0.05279
C         24.50276        56.60755         0.28047
C         25.72913        58.71175        -0.06757
C         24.52409        59.51995         0.10806
C         24.41585        60.86328        -0.46035
C         26.92534         8.23332        -0.81310
C         28.22308        10.46757        -0.94229
C         27.07465         9.64731        -0.51857
C         28.20881        11.85862        -0.86364
C         26.91029        12.56723        -0.71794
C         28.16838        14.78261        -0.45363
C         26.89109        14.05825        -0.54917
C         28.19789        16.10086        -0.02701
C         26.99113        16.69284         0.66197
C         28.22472        18.89712         0.80462
C         26.97823        18.19916         0.68420
C         28.14730        20.26365         1.18568
C         26.84663        20.94363         1.57748
C         28.16068        23.18513         1.49415
C         26.90921        22.40280         1.17983
C         28.14626        24.62703         1.05101
C         26.88995        25.32399         0.93539
C         28.10704        27.46479         0.80578
C         26.87071        26.74195         0.80201
C         28.11502        28.90095         0.74387
C         26.81863        29.66135         0.90438
C         28.05112        31.76301         0.33828
C         26.86083        31.05923         0.32661
C         28.07520        33.16507         0.04479
C         26.83856        33.84022        -0.22256
C         28.00424        35.89271         0.20916
C         26.81061        35.27133        -0.20052
C         28.02377        37.93789        -0.21966
C         26.81853        38.31538        -0.89518
C         28.20724        40.49808        -1.22452
C         26.89105        39.73032        -1.51075
C         28.19365        41.93881        -0.76760
C         26.97079        42.54188        -0.16793
C         28.18068        44.54028         0.59076
C         26.97239        43.82105         0.48362
C         28.28195        45.87192         1.14375
C         26.89474        46.64556         1.20119
C         28.16254        48.75969         0.77276
C         26.95482        48.02200         0.75760
C         28.14757        50.18217         0.40845
C         26.99057        50.82662         0.04414
C         28.22228        53.02856        -0.08312
C         27.01190        52.22688        -0.53825
C         28.19958        54.43865        -0.07785
C         26.99659        55.18542        -0.12375
C         26.95433        56.56968        -0.05918
C         29.34798        12.67524        -1.09583
C         30.50537        14.86679        -1.10530
C         29.35004        14.08930        -0.91328
C         30.53355        16.24789        -0.78184
C         29.39534        16.87615        -0.13689
C         30.73270        18.87781         0.17453
C         29.46875        18.21284         0.34868
C         31.06095        20.09133         0.82007
C         29.29067        21.06919         1.49152
C         30.78576        23.08119         1.49276
C         29.43356        22.41888         1.23023
C         30.67614        24.61784         1.23664
C         29.35553        25.31298         0.99209
C         30.55063        27.49670         0.76160
C         29.33353        26.75087         0.87248
C         30.54907        28.92567         0.69980
C         29.30350        29.61638         0.73167
C         30.55978        31.81794         0.44303
C         29.29575        31.12147         0.90089
C         30.54019        33.16066         0.14034
C         29.30052        33.88016         0.04381
C         30.48127        36.10047        -0.12791
C         29.29416        35.31429         0.02862
C         30.48907        37.50524        -0.30793
C         29.34045        38.33377        -0.52430
C         30.61987        40.41219        -0.27951
C         29.52571        39.71069        -1.14985
C         30.76148        41.90279        -0.49652
C         29.49081        42.66266        -0.56469
C         30.71900        44.53434         0.67330
C         29.44547        44.03437         0.01724
C         30.73295        46.04228         0.77704
C         29.50076        46.68572         0.94305
C         30.66581        48.88288         1.24777
C         29.40487        48.10376         0.98852
C         30.60941        50.28032         0.70279
C         29.42391        50.91584         0.41393
C         29.39863        52.33433         0.19347
C         31.67664        17.00967        -1.09782
C         32.95609        19.11701        -0.88251
C         31.78881        18.34131        -0.65497
C         33.08343        20.44488        -0.41335
C         32.02106        21.01331         0.38335
C         33.16554        23.13387         0.49376
C         32.00780        22.41746         0.75472
C         33.30894        24.59213         0.88382
C         31.94096        25.37298         0.88125
C         32.77512        27.59134        -0.02616
C         31.74679        26.79052         0.44907
C         32.95300        28.93422         0.34807
C         31.78321        29.65844         0.64112
C         33.00573        31.73240         0.12236
C         31.82212        31.10145         0.48386
C         32.96499        33.08796        -0.54614
C         31.83889        33.94199         0.08008
C         33.04851        36.01693        -0.67076
C         31.69989        35.30190        -0.61794
C         33.05883        37.38811        -0.68985
C         31.86032        38.16669        -0.17752
C         33.17958        40.36569        -0.47092
C         31.89042        39.63823        -0.57123
C         33.16566        41.74615         0.16169
C         31.94069        42.53755        -0.25430
C         33.25393        44.54089         0.63150
C         31.98142        44.04294        -0.09192
C         33.32407        46.08325         0.54663
C         31.97100        46.77979         0.74322
C         31.93022        48.13776         0.90767
C         34.29667        21.16802        -0.48479
C         35.66624        23.07761         0.19594
C         34.38800        22.46316         0.05915
C         35.80081        24.48421         0.36507
C         34.56026        25.19635         0.23937
C         35.80564        27.31156         0.05753
C         34.70082        26.50468        -0.21538
C         35.63376        28.73979         0.57611
C         34.29701        29.53554         0.47727
C         35.55381        31.74076        -0.06776
C         34.29489        31.06036         0.30731
C         35.52161        33.07567        -0.43049
C         34.28746        33.84473        -0.53738
C         35.57032        35.88131        -1.24493
C         34.27580        35.21361        -0.76673
C         35.59024        37.40618        -1.14164
C         34.31022        38.16418        -0.91220
C         35.64584        40.23976        -0.48845
C         34.41892        39.58183        -0.49952
C         35.76603        41.74274        -0.28271
C         34.46740        42.50012        -0.05902
C         34.48129        43.84086         0.08490
C         37.02221        25.21332         0.36319
C         38.17250        27.46924         0.54606
C         37.02592        26.64009         0.37373
C         38.10567        28.88524         0.41166
C         36.84968        29.57796         0.25488
C         38.03435        31.69413         0.12779
C         36.80781        30.97124         0.06104
C         37.96561        33.15096         0.07478
C         36.84752        33.74207        -0.75705
C         38.03370        35.94975        -0.62536
C         36.81487        35.24064        -0.69032
C         38.04254        37.38317        -0.72484
C         36.86102        38.11038        -0.83443
C         36.84482        39.51094        -0.64697
C         39.30311        29.64716         0.45983
C         40.50309        31.81832         0.41543
C         39.27266        31.04068         0.36422
C         40.52478        33.16548         0.28766
C         39.28461        33.94840         0.15754
C         39.26727        35.27641        -0.40884
O         15.18727        35.52848        -2.58017
O         21.79141        26.39481        -1.39987
O         21.76240        29.85727        -1.73354
O         13.40372        23.80493        -0.95294
O         19.83335        16.60816        -1.09802
O         13.65842        27.34057         1.92312
O         32.50953        40.10941        -1.79131
O         15.59137        32.48848         0.80584
O         28.19957        41.57739        -2.21888
O         38.32241        33.82515         1.29423
O         20.03183        52.59583        -1.22093
O         25.41070        53.87504        -1.50509
O         11.89765        34.47768        -2.25737
O         26.60637        10.02897         0.82705
O         25.74266        49.08984        -1.16320
O         24.38569         5.60180         1.03660
O         27.88294        37.09751         0.89958
O         12.94887        39.66821         1.52388
O         31.41715        25.33983         2.26843
O         24.90222        22.67360         2.50243
O         34.31781        30.43942         1.64341
O         16.27768        38.17151        -2.28089
O         21.89456        34.15419        -2.56570
O         22.38057        56.86988        -1.50978
O         32.89520        41.56650         1.56173
O         20.06387        45.93847         2.56506
O         26.70728        13.46095        -1.88467
O         33.66697        27.06886        -0.94092
O         23.21426        10.97354        -1.81972
O         18.38609        28.39783         1.99460
O         30.39126        20.37972         1.99710
O         34.88119        37.99100        -2.28354
O         29.49968        43.86788        -1.43929
O         27.63529        46.23573         2.38451
O         15.10713        43.89805         2.14828
O         20.18847        54.73237         1.64418
O         19.82523        12.12005        -1.61927
O         24.46381        39.09929        -2.34650
O         23.20092        44.99703         2.32847
O         19.73322        35.55752        -2.45409
O         23.97309        41.30651         1.35587
O         18.45358        15.15294         1.91956
O         23.94760        59.46654         1.50807
O         10.05301        29.40386         1.54470
O         22.90299        28.30520         1.51405
O         24.32919        16.71623         2.12179
H         24.13679        15.78131         2.37242
O         32.68711        32.77702        -1.93576
H         32.31479        33.58905        -2.36057
O         16.69835        30.27277         1.78936
H         17.10949        29.66678         2.45370
O         31.36437        35.04567        -2.02251
H         31.29406        35.90955        -2.48302
O         30.64356        43.99184         2.00560
H         31.52805        44.14745         2.43452
O         18.28840        36.12058         0.89415
H         18.93187        36.82010         1.14518
O         12.06503        37.27968         1.47271
H         12.58425        37.88394         2.05481
O         23.65048        31.42003        -2.33530
H         23.13193        30.64358        -2.66113
O         19.59089        48.49473         2.79807
H         19.94934        47.70859         3.27624
O         33.87798        46.48439        -0.70900
H         33.34835        46.03492        -1.40850
O         14.54020        30.52333        -2.12545
H         15.47668        30.27638        -2.34908
O         14.16971        29.95223         1.51808
H         14.94180        30.45968         1.87083
O         35.59855        35.57100        -2.68796
H         35.17832        36.34532        -3.13788
O         24.45983        21.17664        -0.84858
H         23.65362        21.66971        -1.11732
O         23.39654        14.87071        -1.90224
H         22.65417        15.39126        -2.27394
O         27.13478        16.33833         2.08997
H         26.32480        16.68286         2.53908
O         36.48832        42.29792        -1.39298
H         35.92160        42.23507        -2.18913
O         19.36473        42.91573        -1.64092
H         18.48416        43.33667        -1.74926
O         30.01877        39.55224        -2.48480
H         29.87843        40.40372        -2.95456
O         17.01907        25.19976         2.72997
H         16.29791        25.76046         3.08805
O          7.15046        30.43370        -2.28766
H          7.18852        31.22905        -2.85905
O         32.07737        38.17877         1.27140
H         31.37684        38.75767         1.66045
O         13.29636        28.30206        -1.61144
H         13.46192        29.11834        -2.15679
O         26.83271        39.56575        -2.93577
H         27.06804        40.43394        -3.33334
O         29.22745        31.33770         2.35216
H         28.37669        30.93293         2.65464
O         30.72609        49.05878         2.72542
H         29.83131        49.32775         3.02529
O         31.04048        22.92422         2.90893
H         31.75649        23.56581         3.13710
O         33.71044        24.53642         2.28811
H         33.77291        25.45380         2.63010
O         30.31233        40.27580         1.13190
H         31.03216        40.79058         1.59757
O         21.84666        39.99756        -2.73452
H         22.64836        39.62292        -3.16756
O         26.76327        20.80537         3.03701
H         27.20767        21.60073         3.42010
O         18.21208        33.43503         1.37930
H         17.33654        33.09765         1.68711
O         26.69009        29.88461         2.36935
H         26.47326        29.02060         2.78270
O         32.21243        34.24130         1.44163
H         32.12937        33.42479         1.97816
O         32.00048        44.66128        -1.39927
H         31.15054        44.41242        -1.84788
O         19.75987        39.13183         1.04433
H         19.83248        39.95385         1.57789
O         23.77995        35.78291        -2.95330
H         23.40876        34.93642        -3.30585
O         24.70725        54.88930         1.91510
H         24.04225        55.46536         2.36973
O         24.12070        13.85709         1.51993
H         24.85598        13.35523         1.93353
O          6.53818        29.92594         1.27797
H          7.32651        30.26788         1.74902
O         21.97880        20.94901         2.87372
H         22.14842        20.02424         3.15255
O         23.00864        57.06966         2.08923
H         23.45870        57.81713         2.54919
O         15.98504        28.43791        -1.34168
H         15.15972        27.99147        -1.66049
O         27.19379        52.03259        -1.96711
H         26.71725        52.77153        -2.41319
O         33.20650        44.18081         2.03476
H         33.20406        43.16640         2.06503
O         24.46040        18.22869        -1.22185
H         24.49404        19.17738        -1.48892
O         28.16701        23.25603         2.98887
H         29.11580        23.25393         3.27680
O         37.17454        33.38776        -2.13979
H         36.59643        33.94567        -2.71607
O         17.19127        30.50886        -1.85884
H         17.98075        29.93271        -1.94904
O         35.75315        28.45051         2.01637
H         35.52408        29.28644         2.48833
O         21.04160        44.94466        -0.83220
H         20.69294        44.23083        -1.42601
O         14.23217        39.99443        -1.95328
H         14.92358        39.52927        -2.48932
O         10.76647        32.10868         1.49345
H         10.71181        31.25217         1.98055
O         21.34038        56.23096        -2.29918
H         21.82497        55.49145        -2.74133
O         19.37453        25.16843        -1.17615
H         20.24711        25.59398        -1.48183
H          4.84883        31.19021        -0.76418
H          4.88710        33.63207        -0.65118
H          7.31162        26.85739        -0.08763
H          6.09594        28.96580        -0.49603
H          6.11245        35.75917        -0.55989
H          7.33767        37.88174        -0.23032
H          9.79143        22.54852         0.33858
H          8.56013        24.70844         0.09035
H          8.60437        40.02926         0.21779
H          9.85221        42.12912         0.49365
H         12.29019        18.26343         0.71116
H         11.03938        20.37963         0.62836
H         11.06244        44.29652         0.52897
H         12.36271        46.46050         0.63748
H         14.78683        13.98374         0.63238
H         13.53363        16.12720         0.73985
H         13.60267        48.55471         0.60157
H         14.81117        50.68397         0.49910
H         17.35442         9.69502         0.41166
H         16.03241        11.80809         0.51111
H         16.00131        52.81707         0.38717
H         17.24894        54.98463         0.23531
H         19.87626         5.45957         0.37302
H         18.60987         7.61269         0.39485
H         18.57521        57.21203         0.28314
H         19.79083        59.29341         0.02902
H         23.20326         2.22355        -0.33626
H         21.31069         3.32655         0.55004
H         23.16040        62.54398        -0.87880
H         21.03576        61.37561        -0.41175
H         25.14237         3.30362        -1.30594
H         26.48761         5.75583        -1.58844
H         26.66192        59.21392        -0.36174
H         25.32253        61.34700        -0.85108
H         27.74524         7.72052        -1.33791
H         29.14759         9.95225        -1.24478
H         29.14646        54.97935         0.07930
H         27.89456        57.14127        -0.05568
H         30.30181        12.18596        -1.34574
H         31.41517        14.40038        -1.51168
H         31.54345        50.86346         0.70325
H         30.32720        52.90045         0.36836
H         32.49593        16.55039        -1.66976
H         33.79962        18.65818        -1.41833
H         34.01987        46.45027         1.34372
H         32.86866        48.71340         0.91155
H         35.19043        20.69265        -0.91501
H         36.56303        22.46532         0.01710
H         36.41713        41.90467         0.61967
H         35.41711        44.40898        -0.03427
H         37.97321        24.66652         0.43772
H         39.15493        27.00587         0.72082
H         38.99072        37.91729        -0.56447
H         37.80398        40.04158        -0.55412
H         40.26353        29.13087         0.60631
H         41.44815        31.26416         0.51623
H         41.48337        33.70380         0.24357
H         40.21317        35.78858        -0.63750
