         210
 CSIRO Nanostructure Databank - Neutral Graphene Oxide Data Set
C         30.79956        31.55858        -1.45400
C         30.87476        32.80398        -1.60825
C         30.82250        35.94923        -1.72290
C         30.80011        37.20705        -1.67070
C         30.72768        40.35276        -1.52879
C         30.62100        41.60225        -1.43532
C         32.88214        28.94164         0.14289
C         31.91394        29.42439        -0.48806
C         33.00394        31.56965        -0.49876
C         31.82203        30.79276        -0.85285
C         33.04358        32.99035        -0.74032
C         31.91543        33.69518        -1.28245
C         33.03409        35.88762        -0.92391
C         31.89713        35.11644        -1.34901
C         32.99809        37.32316        -0.86151
C         31.82261        38.06470        -1.23229
C         32.90417        40.24933        -0.71217
C         31.79706        39.49975        -1.17593
C         32.87604        41.67654        -0.60809
C         31.66190        42.41869        -0.93922
C         32.81935        44.35165        -0.25676
C         31.77467        43.80947        -0.68751
C         35.40345        27.67723         1.77105
C         35.09189        29.03517         1.41498
C         34.06904        29.56209         0.59787
C         35.32180        31.69994         0.40173
C         34.12219        30.94890         0.17571
C         35.37518        33.10056         0.08491
C         34.21313        33.75845        -0.40435
C         35.39027        35.92548        -0.20289
C         34.21113        35.18660        -0.50891
C         35.36487        37.36382        -0.22762
C         34.16225        38.04217        -0.44712
C         35.35945        40.24917        -0.13150
C         34.05023        39.49869        -0.05981
C         35.33286        41.65949        -0.05986
C         34.07642        42.37465        -0.19223
C         35.29140        44.47118         0.34946
C         34.09268        43.78462        -0.00440
C         35.41797        45.83795         0.71575
C         37.86380        27.43615         1.68717
C         36.48659        27.07867         1.87027
C         38.07027        28.81112         1.91025
C         36.18519        29.88139         1.71135
C         37.77533        31.68724         1.05028
C         36.44628        31.08653         1.04069
C         37.74396        33.15491         0.91179
C         36.54992        33.84308         0.39468
C         37.83482        35.96994         0.19751
C         36.57937        35.24141         0.18603
C         37.82012        37.41371         0.01526
C         36.60473        38.10231        -0.05350
C         37.81331        40.27469         0.00711
C         36.58197        39.54645        -0.05779
C         37.79246        41.68696         0.05429
C         36.56278        42.38181         0.09040
C         37.77808        44.50200         0.65294
C         36.54939        43.80640         0.34377
C         37.78412        45.88463         1.03496
C         36.47320        46.42938         1.03106
C         40.00364        24.64779         0.49496
C         38.99642        25.33210         0.80276
C         40.20549        27.36234         0.90534
C         38.93340        26.70431         1.12134
C         40.26975        28.80564         0.94532
C         39.13009        29.55741         1.33088
C         40.26021        31.69928         0.77976
C         39.01844        31.00772         1.13486
C         40.29821        33.09630         0.57056
C         39.09253        33.90950         0.76206
C         40.29390        35.95128        -0.22388
C         39.03998        35.29064         0.27845
C         40.31214        37.43185         0.04698
C         39.07107        38.13930         0.04141
C         40.30198        40.26596         0.17212
C         39.06089        39.55308         0.06131
C         40.31703        41.68626         0.21718
C         39.07251        42.47210        -0.11739
C         40.24183        44.52645         0.73977
C         39.04301        43.84997         0.51406
C         40.26568        45.89783         1.15213
C         38.99862        46.56364         1.29562
C         40.23680        48.57903         1.79979
C         39.17633        47.92496         1.62376
C         42.58353        24.51803         0.20643
C         41.31312        25.17531         0.39907
C         42.70222        27.30515         0.82918
C         41.37471        26.58988         0.60323
C         42.70964        28.76820         0.42278
C         41.48366        29.51080         0.57631
C         42.65997        31.62695         0.05386
C         41.45183        30.92016         0.50868
C         42.74479        33.09466         0.20291
C         41.52532        33.81341         0.27291
C         42.78434        35.92725         0.16819
C         41.55730        35.22756         0.15509
C         42.79838        37.39168         0.17137
C         41.53392        38.11067         0.12618
C         42.75659        40.25810         0.27928
C         41.53092        39.54286         0.21218
C         42.73681        41.65676         0.42574
C         41.52548        42.37462         0.38662
C         42.77849        44.52862         0.84686
C         41.53232        43.88727         0.27032
C         42.75688        45.86758         1.27468
C         41.51829        46.60117         1.35642
C         42.84256        48.52855         1.86995
C         41.52152        48.01905         1.66494
C         43.63426        25.19968         0.16413
C         45.14576        27.22950         0.19038
C         43.94549        26.56226         0.30571
C         45.19665        28.69004         0.19361
C         43.93813        29.39659         0.20123
C         45.24867        31.55956         0.01061
C         43.97190        30.84050        -0.09453
C         45.29689        33.05108         0.26148
C         43.97274        33.77681         0.14392
C         45.30319        35.88271         0.29641
C         43.99696        35.18481         0.18594
C         45.28922        37.40154         0.40570
C         43.99650        38.10465         0.23684
C         45.21452        40.26181        -0.01922
C         44.02431        39.54659         0.18459
C         45.11210        41.75451        -0.28084
C         44.06196        42.33507         0.66610
C         45.23579        44.53993         0.59403
C         43.99547        43.83413         0.68197
C         45.26740        45.88021         1.03863
C         44.10655        46.43949         1.79967
C         43.92140        47.92831         1.74579
C         47.52759        27.29375         0.03406
C         46.45001        26.67124         0.01493
C         47.69970        28.71057         0.06414
C         46.42438        29.39122         0.09084
C         47.70771        31.54600        -0.02439
C         46.44835        30.84500         0.05269
C         47.69583        32.95548        -0.49088
C         46.38475        33.73856        -0.58493
C         47.73847        35.88919        -0.34546
C         46.52861        35.19559        -0.15179
C         47.78563        37.38521        -0.24450
C         46.56217        38.16450         0.13984
C         47.64224        40.35275        -0.44317
C         46.48203        39.62319        -0.16678
C         47.65441        41.80473        -0.51434
C         46.42873        42.51221        -0.24784
C         47.54873        44.71156        -0.44405
C         46.38841        43.89070        -0.02293
C         47.49761        46.08302         0.06724
C         46.53579        46.44428         0.78417
C         50.21953        28.88783         0.17241
C         48.90673        29.41219         0.12465
C         50.21636        31.56964         0.13175
C         48.94458        30.86966         0.07407
C         50.19379        33.05955         0.10425
C         48.98378        33.71706        -0.48362
C         50.21998        35.88183        -0.85830
C         48.95087        35.19685        -0.52913
C         50.20333        37.40828        -1.09559
C         48.89503        38.13990        -0.93400
C         50.18498        40.36400        -0.73057
C         48.88796        39.63907        -0.84043
C         50.16647        41.78416        -0.57956
C         48.89133        42.48733        -0.64480
C         50.17429        44.56676        -0.62346
C         48.85783        43.96297        -0.80218
C         51.33117        29.45546         0.27295
C         52.58455        31.74903         0.33282
C         51.45540        30.87377         0.23824
C         52.63304        32.97756         0.14848
C         51.50410        33.89898         0.13131
C         52.56320        36.07606        -0.73141
C         51.50836        35.23079        -0.48876
C         52.54213        37.34417        -0.92703
C         51.45209        38.19147        -0.92156
C         52.50657        40.46054        -0.54047
C         51.40139        39.61348        -0.73495
C         52.56353        41.71212        -0.40481
C         51.41609        42.51981        -0.42354
C         51.20383        43.92466        -0.35203
O         47.61276        37.87218         1.12692
O         50.66048        33.75710         1.30408
O         48.59613        38.91757        -2.12680
O         37.11762        29.49149         2.68726
O         48.50267        33.08599        -1.73095
O         45.39178        36.58262         1.60324
O         43.15447        31.20200        -1.26648
O         38.40821        33.78719         2.05146
O         50.20471        36.47771        -2.21366
O         47.97839        44.49303        -1.79764
O         45.75208        33.21548         1.63688
H         45.01814        32.99530         2.24735
O         40.24045        35.81991        -1.69945
H         39.45648        36.32133        -2.01049
O         44.60204        41.91236        -1.63130
H         45.30995        41.66684        -2.26312
O         39.17562        42.74363        -1.57353
H         39.19678        41.87781        -2.03531
O         42.87983        27.32532         2.28511
H         42.86141        26.39722         2.60358
O         44.25380        46.03445         3.16934
H         43.57184        46.49266         3.70387
O         41.59770        44.17160        -1.16105
H         40.78620        43.77925        -1.57120
O         33.70703        39.45537         1.37441
H         33.63257        40.38120         1.69053
O         45.95217        33.74301        -1.95738
H         46.76281        33.69914        -2.51631
O         44.50266        41.96878         2.00888
H         43.88658        42.36531         2.65970
