         429
 CSIRO Nanostructure Databank - Neutral Graphene Oxide Data Set
C          1.63495         4.05326        -3.39913
C          0.41045         4.73191        -3.42204
C          1.51200         6.75885        -2.61978
C          0.34975         6.06501        -3.04272
C          1.46961         8.15098        -2.25693
C          0.27378         8.87756        -2.25051
C          1.39729        10.92126        -1.47427
C          0.24044        10.23348        -1.93812
C          1.33876        12.30472        -1.10484
C          0.10014        13.05193        -1.08640
C          1.26767        15.17602        -0.65606
C          0.04203        14.37616        -0.78384
C          1.26212        16.58128        -0.17984
C          0.07350        17.32428        -0.16270
C          1.28497        19.35167         0.43909
C          0.08252        18.68017         0.14165
C          1.29899        20.76517         0.77300
C          0.08203        21.53341         0.77562
C          1.21421        23.57179         1.53851
C          0.04852        22.86185         1.10294
C          1.20413        24.94629         1.78812
C          0.00639        25.72102         1.58719
C          1.19979        27.84982         1.34487
C         -0.00391        27.07315         1.36377
C          1.23151        29.22550         1.15418
C          0.08329        29.97018         0.67878
C          1.15243        32.13915         1.29779
C          0.03974        31.32150         0.68146
C          1.12483        33.58279         0.82067
C         -0.02443        34.44883         1.21345
C          1.38129        36.52564         1.18521
C          0.07005        35.78474         1.27455
C          1.30504        37.91022         0.59105
C          4.09754         3.94874        -3.01606
C          2.79658         4.70418        -2.97119
C          3.92745         6.68744        -1.96573
C          2.75441         6.05690        -2.56654
C          3.90215         8.04998        -1.58329
C          2.77173         8.90209        -2.09373
C          3.74648        10.80987        -0.73863
C          2.63378        10.22296        -1.38000
C          3.66576        12.16050        -0.31719
C          2.51482        12.91710        -0.62167
C          3.72829        15.03705         0.09775
C          2.55669        14.38395        -0.50940
C          3.71403        16.44825         0.25505
C          2.49010        17.21455         0.15051
C          3.74184        19.27611         0.76859
C          2.50287        18.61100         0.45857
C          3.74643        20.68667         1.09690
C          2.49766        21.39354         1.12283
C          3.75732        23.47757         1.96489
C          2.45862        22.77354         1.67183
C          3.80808        24.96902         2.30667
C          2.45199        25.69029         2.10172
C          3.70601        27.76207         1.15648
C          2.45142        27.15606         1.75365
C          3.78890        29.23999         1.47727
C          2.48308        29.99059         1.42417
C          3.66643        32.08930         0.81668
C          2.49396        31.44356         1.10803
C          3.68376        33.50599         0.49905
C          2.41954        34.26120         0.52030
C          3.66483        36.35547         0.17412
C          2.49886        35.72590         0.56434
C          3.68387        37.79917        -0.00204
C          2.41771        38.51334         0.12051
C          6.29209         3.78215        -1.85546
C          5.16616         4.54432        -2.13060
C          6.10909         6.41676        -0.73840
C          5.06502         5.89002        -1.68871
C          6.18663         7.91740        -0.67170
C          5.02229         8.67458        -0.94454
C          6.10562        10.66514         0.04396
C          4.98835        10.06174        -0.55625
C          5.95033        11.91753         0.89310
C          4.65421        12.77399         0.65759
C          6.07428        14.90999         0.73357
C          4.85257        14.26449         0.43208
C          6.11280        16.32428         0.71157
C          4.93193        17.10058         0.57828
C          6.18551        19.21577         1.01052
C          4.94443        18.53624         0.77117
C          6.19786        20.63509         1.25064
C          4.96955        21.36223         1.34579
C          6.21575        23.49183         1.61554
C          5.03122        22.79674         1.61186
C          6.34432        24.98954         1.85606
C          5.00311        25.69647         1.70332
C          6.30565        27.77264         1.32284
C          4.98803        27.01500         1.40984
C          6.18848        29.21069         0.83244
C          5.03506        29.91822         1.07334
C          6.09509        31.95677         0.14807
C          5.01807        31.42864         1.06358
C          6.03437        33.38904        -0.26771
C          4.83390        34.16798         0.09480
C          6.05254        36.22869        -0.49062
C          4.85477        35.58619        -0.12048
C          6.07517        37.67606        -0.55667
C          4.85346        38.41880        -0.36754
C          8.66940         3.63988        -1.19510
C          7.47065         4.36635        -1.27629
C          8.61397         6.38758        -0.47079
C          7.43739         5.73256        -0.87442
C          8.58705         7.79081        -0.11869
C          7.37327         8.54786        -0.22237
C          8.53782        10.55169         0.64600
C          7.35260         9.93868         0.15649
C          8.44961        11.88015         1.42254
C          7.24349        12.72383         1.00297
C          8.50477        14.82387         1.42195
C          7.26896        14.09061         1.01187
C          8.54626        16.32358         1.33792
C          7.42803        17.04188         0.63382
C          8.62910        19.16451         1.18112
C          7.39318        18.49896         1.01165
C          8.64303        20.59454         1.24688
C          7.43304        21.30510         1.34248
C          8.65714        23.44609         0.90857
C          7.52890        22.76945         1.66289
C          8.62417        24.83167         0.63871
C          7.42153        25.60231         0.94849
C          8.45357        27.57813        -0.13745
C          7.37591        26.93325         0.65223
C          8.50484        29.09306        -0.19854
C          7.38792        29.88465         0.34755
C          8.53720        31.92608        -0.46371
C          7.39671        31.25347         0.10046
C          8.47181        33.30526        -0.80262
C          7.28874        34.06712        -0.62139
C          8.48862        36.18828        -0.97358
C          7.26308        35.48471        -0.73799
C          8.50493        37.62731        -0.90030
C          7.27585        38.34006        -0.75172
C         11.07706         3.54110        -0.66768
C          9.85849         4.26280        -0.75554
C         11.04686         6.31553        -0.05124
C          9.83698         5.65830        -0.42585
C         11.02818         7.70890         0.25791
C          9.78872         8.43835         0.24540
C         11.02809        10.45457         0.88346
C          9.76445         9.82384         0.62072
C         11.05426        11.90326         1.18232
C          9.78196        12.64591         1.43693
C         10.99053        14.83638         1.36110
C          9.80022        14.12807         1.36564
C         11.01863        16.27869         1.46160
C          9.84895        17.01928         1.33529
C         11.09978        19.16421         1.35281
C          9.86054        18.44710         1.27188
C         11.11024        20.60536         1.15703
C          9.87829        21.29905         1.10243
C         11.03902        23.29155         0.26356
C          9.86458        22.69530         0.76730
C         10.95540        24.67239        -0.22379
C          9.77275        25.48296         0.12086
C         10.90007        27.52410        -0.71418
C          9.75539        26.86543        -0.27587
C         10.79591        28.91884        -1.32856
C          9.76308        29.77763        -0.56596
C         10.85274        31.79170        -1.51073
C          9.74937        31.15453        -0.68963
C         10.93993        33.29565        -1.34973
C          9.61925        33.99861        -1.53425
C         10.91740        36.15533        -1.22947
C          9.68556        35.47424        -1.20780
C         10.93936        37.58597        -1.06422
C          9.72398        38.30333        -0.95577
C         13.49500         3.45274        -0.26210
C         12.27190         4.16680        -0.27845
C         13.46307         6.24391         0.38303
C         12.26259         5.58403         0.02623
C         13.46789         7.62183         0.61068
C         12.25282         8.35899         0.56407
C         13.53144        10.47942         0.84137
C         12.24288         9.77337         0.82879
C         13.54082        11.91211         0.74748
C         12.28162        12.63994         0.74827
C         13.53452        14.81348         1.18782
C         12.26474        14.16509         0.98577
C         13.59757        16.21331         1.60573
C         12.28544        16.99873         1.66720
C         13.55830        19.18768         1.62694
C         12.29352        18.46152         1.51482
C         13.59015        20.69103         1.29203
C         12.31496        21.31877         0.96162
C         13.52875        23.29150         0.08887
C         12.30334        22.63564         0.39854
C         13.52783        24.56412        -0.74731
C         12.20914        25.35795        -0.67887
C         13.48516        27.53610        -0.83045
C         12.22584        26.85030        -0.37339
C         13.44798        28.91017        -1.09001
C         12.19537        29.59323        -1.64943
C         13.34526        31.77521        -1.31839
C         12.18221        31.08793        -1.36137
C         13.39513        33.24217        -0.95594
C         12.12023        33.98114        -1.30777
C         13.38000        36.14814        -1.44267
C         12.16162        35.44587        -1.34143
C         13.40101        37.58903        -1.20109
C         12.17361        38.24812        -0.98147
C         15.91542         3.37337        -0.10556
C         14.72798         4.06453         0.06499
C         15.96597         6.24863         0.45560
C         14.70941         5.44662         0.69544
C         16.00290         7.59617         0.63331
C         14.74099         8.30594         1.07622
C         15.95742        10.46557         0.22670
C         14.72712         9.77687         0.76667
C         15.97800        11.93431         0.55134
C         14.78301        12.61904         0.70228
C         16.08942        14.79958         1.13905
C         14.78244        14.05926         1.07944
C         16.13364        16.27681         1.17800
C         14.83275        16.97706         1.22139
C         16.09641        19.21528         1.38049
C         14.80760        18.46157         1.25931
C         16.07542        20.63631         0.94805
C         14.84448        21.31289         0.82463
C         16.01573        23.31465         0.02292
C         14.78156        22.64008         0.30340
C         15.99482        24.72352        -0.36708
C         14.77124        25.40248        -0.55724
C         15.94204        27.54548        -0.99290
C         14.72911        26.83011        -0.77532
C         15.90637        28.93089        -1.23970
C         14.66604        29.60655        -1.26570
C         15.90183        31.82896        -1.61674
C         14.61986        31.05328        -1.57638
C         15.87297        33.29844        -1.50850
C         14.64529        33.96703        -1.40374
C         15.81499        35.97382        -2.00326
C         14.60591        35.37052        -1.61086
C         15.82899        38.07023        -1.52630
C         14.56954        38.38796        -0.98623
C         18.47432         3.29406         0.23269
C         17.22001         4.04017        -0.01212
C         18.45139         6.13473         0.86054
C         17.23702         5.51553         0.20791
C         18.48462         7.62330         0.59503
C         17.27874         8.32689         0.54821
C         18.48093        10.47227         0.46210
C         17.28160         9.76841         0.48062
C         18.53318        11.91473         0.49240
C         17.25991        12.65333         0.38243
C         18.59045        14.82366         0.82212
C         17.30599        14.13447         0.59663
C         18.59087        16.23115         0.98182
C         17.32453        16.94787         1.10843
C         18.61158        19.14215         0.93704
C         17.36824        18.42549         1.28031
C         18.57012        20.54329         0.70336
C         17.29511        21.26798         0.59932
C         18.49410        23.34181        -0.12694
C         17.23836        22.62354         0.16449
C         18.45770        24.81539        -0.18797
C         17.22298        25.43519        -0.47037
C         18.47455        27.58239        -0.78630
C         17.24295        26.78024        -1.14110
C         18.52384        28.96529        -1.24701
C         17.16002        29.68232        -1.53007
C         18.38839        31.85522        -1.44696
C         17.18584        31.13470        -1.45854
C         18.36654        33.30139        -1.55379
C         17.10950        33.99427        -1.60828
C         18.29385        36.20255        -1.69915
C         17.08762        35.40777        -1.77486
C         18.28643        37.62741        -1.44924
C         17.11466        38.40057        -1.10672
C         19.64756         3.94757         0.43044
C         20.89935         6.09051         0.42627
C         19.72240         5.39346         0.52145
C         20.91597         7.52257         0.43391
C         19.75567         8.27337         0.48110
C         20.94530        10.48109         0.87572
C         19.79774         9.76103         0.21365
C         20.91980        11.82405         1.01503
C         19.73060        12.60591         0.70865
C         20.99778        14.79099         0.89175
C         19.78449        14.06815         0.79277
C         21.00896        16.17992         0.96054
C         19.81889        16.94159         0.99610
C         21.02935        19.13481         0.79614
C         19.82701        18.41316         0.93102
C         21.01167        20.51633         0.63311
C         19.80414        21.22492         0.54776
C         20.93295        23.53529         0.53301
C         19.82033        22.65844         0.16029
C         20.85234        24.88936         0.37393
C         19.65447        25.55515        -0.05030
C         20.77710        27.82034        -0.01907
C         19.62141        26.99657        -0.25846
C         20.79610        29.15960        -0.32926
C         19.68508        29.79925        -0.94603
C         20.83888        31.97656        -1.27060
C         19.64978        31.18795        -1.23804
C         20.80092        33.33108        -1.49122
C         19.56458        34.04281        -1.60511
C         20.74380        36.23758        -1.59771
C         19.53926        35.50116        -1.66056
C         20.73381        37.62328        -1.45816
C         19.52525        38.29712        -1.31845
O         13.02098        16.56115         2.89507
O          6.84727        25.21736         3.17004
O         16.83649        18.89337         2.59289
O         17.18915        13.60671        -0.77208
O         10.40248        31.52518        -2.85622
O         15.76578        37.21139        -2.64263
O         11.29100        24.91114        -1.69354
O          5.65903        32.28303        -1.19947
O          8.25456        15.67836         2.60467
O         12.11780        13.54618        -0.38108
O         17.97678        29.12897        -2.60954
O         19.32034        22.80324        -1.21807
O         15.21740        31.37898        -2.87655
O          3.04216        22.77276         3.04051
O         13.67428        20.16848         2.67624
O          1.47972        33.75735        -0.57747
O         14.63347        17.77304        -0.02596
O          5.76254        11.18112         2.10761
O         15.58288        14.21162         2.37659
O          2.18547        15.00779        -1.79510
O          7.96264        28.25077        -1.32534
O         17.40086         5.03807        -1.14984
O          3.15592        29.67392         2.71700
O         10.65706        12.21331         2.55350
O          2.36614        26.73819         3.13114
O         13.46484        33.26117         0.52170
H         13.44097        34.20103         0.80213
O          7.97679        22.85240         3.05692
H          7.67213        23.75819         3.38618
O         20.02941         9.88099        -1.23596
H         20.04679        10.83847        -1.44950
O          8.23635        11.47279         2.78746
H          7.27237        11.20304         2.84644
O          3.16044         9.24626        -3.49230
H          2.49146         9.88131        -3.82792
O         10.12897        28.81311        -2.61628
H          9.97562        29.77118        -2.89212
O         17.35952        26.47966        -2.57754
H         17.50152        27.34877        -3.03023
O          5.39184        31.81972         2.41963
H          4.83650        31.29398         3.03878
O          3.47636        27.67806        -0.28919
H          4.27790        28.00593        -0.75092
O         13.64789        24.08031        -2.12189
H         12.73287        24.05135        -2.49381
O          9.29482        33.89890        -2.95035
H          9.60052        32.97676        -3.22210
O         18.25056         5.96345         2.30205
H         19.00319         6.39034         2.76236
O          5.61025         6.00878         0.60723
H          5.65020         5.02872         0.64185
O          4.09524        25.02939         3.71834
H          3.62220        24.28367         4.14997
O         14.67224         5.21317         2.14137
H         14.74222         6.09864         2.57434
O         14.74132         8.16694         2.55031
H         13.96648         8.66173         2.89532
O          3.89324        12.73534         1.89838
H          4.36388        12.03943         2.44894
O          3.90069         2.56151        -2.71857
H          3.52158         2.49094        -1.81886
O          7.81573        17.00766        -0.78770
H          7.10601        17.44763        -1.30214
O         12.31729        26.87824         1.10067
H         12.39547        27.81266         1.38797
O         15.79972        10.38502        -1.24834
H         16.41235        11.04165        -1.64565
O          1.78501        36.72289         2.59229
H          2.59585        37.27514         2.59087
O          0.92606        32.19411         2.73342
H          1.03258        31.28793         3.09454
O         12.45635        29.44199        -3.06249
H         11.63468        29.07942        -3.47723
O          6.77727        27.90861         2.69813
H          6.80771        26.97790         3.08598
H          1.69548         3.00056        -3.70866
H         -0.49924         4.21314        -3.75402
H         -0.61717         6.58273        -3.08829
H         -0.67602         8.38311        -2.49592
H         -0.72135        10.75854        -2.00076
H         -0.84475        12.50989        -1.23091
H         -0.93758        14.85694        -0.65118
H         -0.88101        16.84366        -0.41659
H         -0.87250        19.21993         0.12991
H         -0.85887        21.05453         0.47658
H         -0.91336        23.38706         1.03961
H         -0.95898        25.19684         1.57012
H         -0.96899        27.57332         1.20119
H         -0.77253        29.40499         0.28128
H         -0.84707        31.84587         0.29701
H         -0.99329        33.95598         1.38908
H         -0.81601        36.38249         1.53946
H          0.35827        38.46595         0.66607
H          4.47916         3.98710        -4.07638
H          2.38368        39.55867        -0.22270
H          6.32771         2.73870        -2.20092
H          4.87796        39.50931        -0.51302
H          8.68721         2.58236        -1.49600
H          7.29774        39.43996        -0.75345
H         11.08450         2.47053        -0.92125
H          9.74821        39.40044        -0.88471
H         13.49890         2.40643        -0.60608
H         12.18216        39.33085        -0.78690
H         15.88508         2.32195        -0.43522
H         14.45986        39.29158        -0.36660
H         18.45003         2.19605         0.17046
H         17.25610        39.25237        -0.42377
H         20.58659         3.37722         0.50284
H         21.84531         5.55415         0.25954
H         21.88509         8.02420         0.30459
H         21.85245         9.92041         1.14430
H         21.79680        12.34132         1.42932
H         21.95972        14.26101         0.86876
H         21.98341        16.68618         0.98639
H         21.99717        18.61691         0.80555
H         21.96373        21.05129         0.51190
H         21.83238        23.09514         0.98691
H         21.73194        25.49294         0.63518
H         21.67052        27.37856         0.44011
H         21.69410        29.74770        -0.09456
H         21.81400        31.48146        -1.16549
H         21.75459        33.87087        -1.55003
H         21.71349        35.72525        -1.62850
H         21.68207        38.17497        -1.40091
H         19.52327        39.37892        -1.12276
