         260
 CSIRO Nanostructure Databank - Neutral Graphene Oxide Data Set
C         30.40367        31.60744        -1.00275
C         30.50654        32.83704        -0.88559
C         30.51832        36.00119        -0.83189
C         30.45023        37.21043        -1.07766
C         30.46417        40.48667        -0.77512
C         30.31246        41.71520        -0.70809
C         32.72189        28.88409        -0.00638
C         31.74123        29.44242        -0.50463
C         32.82967        31.59062        -0.55904
C         31.64222        30.76061        -1.21168
C         32.81078        32.94512        -0.38331
C         31.58526        33.73079        -0.59973
C         32.86252        35.85739        -0.44808
C         31.60306        35.09970        -0.59584
C         32.82970        37.38359        -0.39714
C         31.61215        38.11002        -1.03687
C         32.87754        40.21206        -0.29086
C         31.61369        39.58651        -0.83996
C         32.95887        41.49376         0.34717
C         31.04514        42.75402        -0.07798
C         32.68980        44.52626        -0.36724
C         31.52315        43.98044        -0.41228
C         35.27253        27.52029         1.51507
C         35.21537        28.69751         0.55021
C         33.93103        29.52902         0.64276
C         35.35848        31.56892        -0.18052
C         34.06578        30.82799        -0.19888
C         35.33199        33.07111        -0.47866
C         34.05380        33.69598         0.11262
C         35.31307        35.92797        -0.01227
C         34.02585        35.19577        -0.17059
C         35.33788        37.41442        -0.14202
C         34.14703        38.06514        -0.83151
C         35.33183        40.33124        -0.87025
C         34.08034        39.54937        -0.56790
C         35.33051        41.71091        -0.27322
C         34.21729        42.18428         0.38805
C         35.23326        44.74698        -0.93937
C         34.01145        44.40574        -0.12945
C         35.60146        46.21244        -0.96015
C         37.67366        27.50495         2.00874
C         36.30482        26.99134         1.93296
C         37.70970        28.83200         1.33699
C         36.47200        29.52495         0.97346
C         37.79685        31.71421         0.46081
C         36.51734        31.00729         0.59323
C         37.84468        33.07297         0.09561
C         36.59874        33.81239        -0.09424
C         37.83573        35.96004        -0.22584
C         36.59743        35.18944        -0.12999
C         37.83205        37.31450        -0.49928
C         36.55218        38.06192        -0.77997
C         37.80226        40.26039        -0.53805
C         36.62988        39.57388        -0.59636
C         37.83663        41.75821        -0.64084
C         36.52943        42.52517        -0.56907
C         37.79478        44.71435         0.00017
C         36.49918        44.01496        -0.29462
C         37.94032        46.20903        -0.17914
C         36.70423        46.69954        -0.70192
C         40.21263        24.64819         2.09098
C         39.16082        25.26511         2.31360
C         40.20361        27.30608         1.51564
C         38.94939        26.71069         2.16576
C         40.19918        28.78699         1.27039
C         38.96069        29.65707         1.54401
C         40.28333        31.69272         0.81412
C         39.04281        30.86035         0.55415
C         40.36572        33.01610         0.04932
C         39.07327        33.80782         0.09645
C         40.32790        35.93520        -0.10982
C         39.10812        35.22628        -0.06933
C         40.34426        37.31507        -0.75423
C         39.12100        38.10400        -0.25884
C         40.35597        40.25257        -0.30780
C         39.10647        39.53917        -0.86207
C         40.33986        41.70339         0.07154
C         39.12635        42.48998        -0.34008
C         40.25205        44.57327         0.70597
C         39.09990        43.95428        -0.03709
C         40.20247        46.07048         0.86053
C         39.07829        46.83944         0.20407
C         40.40431        48.90088         0.58335
C         39.42850        48.22715         0.21494
C         42.70495        24.52640         1.19222
C         41.49694        25.14012         1.66131
C         42.61271        27.21282         0.74547
C         41.48978        26.52550         1.46941
C         42.79244        28.68578         1.04779
C         41.54047        29.47936         1.29827
C         42.81536        31.60004         0.61313
C         41.55586        30.97005         1.12733
C         42.85751        33.08839         0.74405
C         41.54240        33.81372         0.58919
C         42.89161        36.02848         0.52982
C         41.54466        35.30981         0.43633
C         42.93932        37.37325        -0.17217
C         41.69378        38.08520        -0.61442
C         42.93776        40.36629        -0.20661
C         41.67825        39.63755        -0.75756
C         42.84207        41.75261         0.36360
C         41.59983        42.44488         0.37749
C         42.67488        44.48342         1.26782
C         41.54892        43.82654         0.78493
C         42.70761        45.96778         1.39281
C         41.49022        46.80817         1.12609
C         42.81246        48.76364         1.65398
C         41.38125        48.32624         1.59620
C         43.73137        25.06079         0.72839
C         45.01698        27.15600        -0.30036
C         43.79932        26.41739         0.17561
C         45.14637        28.65434        -0.08293
C         44.17828        29.37742         0.85293
C         45.36989        31.60728         0.24753
C         44.08164        30.84272         0.39535
C         45.37871        32.96960         0.26552
C         44.15202        33.77657         0.52177
C         45.42375        35.92409         0.20959
C         44.11467        35.17968        -0.08420
C         45.36404        37.37888         0.33884
C         44.20613        38.09556         0.14009
C         45.30964        40.29327         0.74672
C         44.19013        39.57712         0.12523
C         45.25056        41.65852         0.94141
C         44.01176        42.37907         0.85939
C         45.20188        44.53512         1.58054
C         43.91702        43.69436         1.63287
C         45.16204        45.89208         1.78076
C         43.89205        46.58120         2.16835
C         43.78245        48.05495         1.91278
C         47.36174        27.20685        -0.94261
C         46.35746        26.60357        -0.55482
C         47.55432        28.65967        -1.09729
C         46.49960        29.34475        -0.23638
C         47.80240        31.56911        -0.60364
C         46.61805        30.83556        -0.04370
C         47.90223        33.00835        -0.23463
C         46.65426        33.73576         0.23872
C         47.93417        35.91444         0.31208
C         46.61008        35.22921         0.24898
C         47.93924        37.42410         0.44807
C         46.61302        38.07901         0.74285
C         47.78550        40.35293         0.54733
C         46.58727        39.56230         0.93683
C         47.75779        41.74187         0.73873
C         46.52321        42.34012         1.33773
C         47.85925        44.54072         1.58308
C         46.50564        43.80251         1.63950
C         47.62225        45.99071         1.71516
C         46.48234        46.46425         1.80598
C         50.09503        28.87512        -1.68122
C         48.75673        29.44022        -1.50275
C         50.11090        31.66442        -1.52493
C         48.85158        30.92618        -1.19901
C         50.18173        33.12345        -1.18858
C         49.09852        33.77875        -0.67374
C         50.24120        36.08398        -0.87749
C         49.15221        35.22538        -0.27148
C         50.22848        37.58684        -0.79732
C         49.07218        38.27449        -0.08616
C         49.59835        40.60701        -0.99641
C         48.81746        39.74589        -0.21588
C         49.59229        42.00475        -0.81079
C         48.78721        42.57241         0.20389
C         50.23805        44.57336         0.37091
C         49.01546        43.91133         0.84956
C         51.18739        29.41642        -1.43544
C         52.57799        31.66803        -1.23782
C         51.45825        30.83111        -1.66330
C         52.60293        32.90208        -1.23007
C         51.49886        33.85997        -1.35715
C         52.69734        36.14030        -0.66146
C         51.55421        35.32879        -1.14848
C         52.61210        37.37869        -0.57836
C         51.58109        38.32124        -0.83185
C         52.52579        40.70726        -1.17503
C         51.64104        39.60514        -1.31624
C         52.48983        41.93653        -0.93691
C         51.64229        43.04964        -0.92835
C         51.32313        44.05391        -0.00329
O         35.31313        36.90464         1.18611
O         36.17545        30.60042         1.96752
O         49.83506        36.90497        -2.02587
O         51.60644        34.78542        -2.47474
O         31.88677        38.95684        -2.14306
O         48.96988        35.34849         1.16946
O         47.62027        33.18808         1.19496
O         34.57988        37.80541        -2.21890
O         38.41999        27.45061         3.26879
O         47.03157        29.87320         0.99819
O         39.95422        27.87365         0.17401
O         37.16869        42.23069        -1.84791
O         46.52672        42.79877         2.72885
O         43.98227        40.20096        -1.22297
O         41.21313        34.63370         1.72447
O         39.80382        45.19567         1.95397
O         42.60925        37.46114        -1.58575
O         50.44371        42.75008        -1.67973
O         35.00018        30.72258        -1.32228
O         48.88454        43.87872         2.30622
O         34.24784        43.48856         0.95533
O         50.45556        40.05182        -1.96410
O         50.76806        31.34175        -2.80311
O         46.59780        38.66791         2.09169
O         40.83981        31.72602         2.14606
O         44.64221        28.12998        -1.32439
O         35.17362        33.27321        -1.93432
O         42.34272        28.98005         2.41356
O         36.10560        37.85697        -2.21431
O         43.63506        33.59302         1.88007
O         48.99806        37.89344         1.32169
O         31.87691        42.12262         0.96664
O         42.47403        46.61313         0.08158
O         36.85111        44.35675         1.06980
O         40.14432        40.62714         1.07782
O         43.90770        35.05652        -1.43898
O         39.46920        43.48151        -1.36532
O         47.70018        29.12690        -2.44952
O         42.66278        26.77527        -0.64113
O         43.16014        31.08195        -0.71680
O         43.77282        43.29705         3.02982
H         44.63868        42.91126         3.31098
O         35.27206        40.52000        -2.31971
H         35.56650        39.68634        -2.75516
O         35.41745        28.22696        -0.75605
H         34.55579        27.95042        -1.13560
O         40.61546        32.64642        -1.33293
H         40.64346        33.45425        -1.88906
O         40.81207        48.37113         2.86544
H         40.74623        49.29739         3.17347
O         31.91475        30.61987        -2.57346
H         31.20802        30.09372        -2.99937
O         33.63838        29.87566         1.97318
H         33.80675        29.09920         2.54916
O         40.15854        37.07092        -2.16232
H         41.04131        36.83538        -2.53340
O         39.27516        38.19483         1.16955
H         38.64863        38.85548         1.53220
O         34.15549        33.52669         1.53970
H         33.35065        33.88540         1.96790
O         35.02520        44.24787        -2.24046
H         35.83138        44.36534        -2.78455
O         44.81563        29.35546         2.13551
H         44.13355        29.53405         2.82367
O         32.70026        37.70355         1.01198
H         33.48727        37.33526         1.48633
O         43.66237        46.33940         3.55236
H         44.46637        46.56949         4.06201
O         43.17450        36.29608         1.89517
H         42.90890        35.49913         2.41753
O         39.09267        39.49033        -2.28658
H         40.02062        39.43847        -2.62472
O         39.18996        30.28612        -0.76684
H         39.55316        30.97834        -1.36944
O         36.33938        32.70352        -2.57907
H         36.03296        31.78591        -2.79645
O         38.96104        30.11182         2.89804
H         38.07606        30.49233         3.09567
O         41.69069        39.89909        -2.18105
H         42.58650        39.63838        -2.50428
