         473
 CSIRO Nanostructure Databank - Neutral Graphene Oxide Data Set
C         38.34799        50.99218        -3.39384
C         37.12954        51.60541        -3.68762
C         37.04899        52.54142        -1.46065
C         36.46855        52.36515        -2.71792
C         40.30643        49.12261        -2.41105
C         40.19485        50.39591        -1.82495
C         38.95005        51.13643        -2.12832
C         40.05741        52.81396         0.04169
C         38.28388        51.94214        -1.18832
C         40.02342        54.12448         0.56652
C         42.62095        48.92424        -1.72296
C         41.48684        48.39219        -2.35129
C         42.51184        50.17822        -1.08243
C         41.29215        50.90739        -1.07825
C         42.46428        52.93490        -0.13408
C         41.25038        52.21949        -0.40246
C         42.43869        54.28542         0.34869
C         41.18032        54.87063         0.66012
C         45.06787        46.01602        -1.58545
C         43.90795        46.70709        -1.73718
C         45.12818        48.79029        -1.26577
C         43.93572        48.19699        -1.95425
C         45.02955        50.10189        -0.61598
C         43.71354        50.79126        -0.46186
C         44.90831        52.91462         0.11741
C         43.72526        52.25719        -0.20297
C         44.91391        54.32800         0.37351
C         43.66655        55.00015         0.53537
C         44.84229        57.08473         1.06610
C         43.69562        56.36654         1.01629
C         47.62663        44.53042        -1.58156
C         47.57129        45.93627        -1.34295
C         46.35134        46.66814        -1.44005
C         47.56495        48.76257        -0.83206
C         46.34434        48.09090        -1.20878
C         47.55056        50.15709        -0.49968
C         46.27305        50.95782        -0.65344
C         47.44301        52.95190         0.29447
C         46.18324        52.12843         0.33336
C         47.39672        54.35056         0.54280
C         46.14136        55.03386         0.53545
C         47.37937        57.21432         0.98775
C         46.11882        56.54331         0.47648
C         47.40849        58.59384         1.21379
C         50.03806        44.47374        -1.17991
C         48.80864        43.83063        -1.49685
C         50.02422        45.88301        -0.94145
C         48.79436        46.60798        -1.01360
C         50.00757        48.67807        -0.46517
C         48.78952        48.01909        -0.76585
C         50.03751        50.18425        -0.41917
C         48.70421        50.84034        -0.15361
C         49.86471        52.93463         0.53850
C         48.67107        52.25099         0.21016
C         49.84330        54.33423         0.85511
C         48.60571        55.05985         0.82400
C         49.77178        57.15099         1.52648
C         48.58428        56.47703         1.11973
C         49.78955        58.54433         1.74084
C         48.58885        59.25329         1.57120
C         52.45877        41.60108        -0.93069
C         51.32590        42.31670        -1.21804
C         52.48344        44.44800        -0.87164
C         51.28289        43.75589        -1.11442
C         52.48429        45.84079        -0.59447
C         51.24267        46.55920        -0.61526
C         52.45819        48.63154        -0.00105
C         51.22345        47.96305        -0.35931
C         52.44393        49.99456         0.38496
C         51.13363        50.69020         0.48455
C         52.33587        52.85091         1.17001
C         51.05807        52.13118         0.88644
C         52.34546        54.34922         0.87640
C         51.03433        54.99081         1.21757
C         52.27033        57.00528         2.20607
C         50.99570        56.35028         1.74886
C         52.28415        58.47305         2.48902
C         51.08553        59.26151         2.00442
C         52.32069        61.31709         2.85931
C         51.18318        60.75227         2.09726
C         54.83745        40.13209        -0.02085
C         54.83212        41.54777        -0.20331
C         53.70724        42.24402        -0.64445
C         54.98873        44.42428        -0.51011
C         53.78554        43.70574        -1.05402
C         54.95712        45.78075        -0.23851
C         53.70888        46.51829        -0.28543
C         54.90522        48.58451         0.39166
C         53.69135        47.90874         0.02724
C         54.88057        49.97779         0.67464
C         53.63725        50.66093         0.69964
C         54.87703        52.87420         0.78111
C         53.62274        52.10340         1.05131
C         54.87452        54.36266         0.99576
C         53.59921        54.97252         1.47759
C         54.88223        57.17748         2.00721
C         53.62260        56.35518         2.05922
C         54.92448        58.52664         2.37472
C         53.60115        59.15299         2.73426
C         55.52979        61.47156         3.55391
C         53.43809        60.59027         3.07542
C         55.82585        62.75697         4.01416
C         57.26326        40.09253         0.35234
C         55.99707        39.44577         0.27604
C         57.34186        41.48408         0.28616
C         56.05907        42.30093         0.27918
C         57.45087        44.35999         0.08879
C         56.26344        43.62255        -0.47356
C         57.43000        45.74413         0.24415
C         56.17882        46.48211         0.12888
C         57.36106        48.49264         0.93832
C         56.13392        47.83411         0.44560
C         57.36277        49.98791         1.13782
C         56.11088        50.73581         0.88927
C         57.37995        52.88982         0.93849
C         56.12500        52.10693         0.89157
C         57.35161        54.30170         1.45118
C         56.10392        55.10221         1.34228
C         57.34230        57.22095         1.37772
C         56.08799        56.44021         1.67472
C         57.36238        58.64720         1.86966
C         56.20004        59.30289         2.30902
C         57.53600        61.44668         2.22919
C         56.37488        60.72231         2.68790
C         57.67442        62.85079         2.48948
C         56.87479        63.47161         3.44619
C         59.69453        37.30740        -0.39741
C         58.52868        37.95950        -0.17729
C         59.79129        40.00279         0.49987
C         58.48964        39.24726         0.61067
C         59.80903        41.43078         0.57893
C         58.58834        42.17130         0.40514
C         59.86155        44.29337         0.59403
C         58.63993        43.60982         0.36239
C         59.89058        45.72507         0.65423
C         58.66024        46.43411         0.54016
C         59.87115        48.53241         0.93406
C         58.66210        47.82764         0.76322
C         59.85442        49.96749         1.07974
C         58.65902        50.67269         1.08755
C         59.87748        52.82721         1.56503
C         58.66454        52.14442         1.05936
C         59.94359        54.22019         1.58429
C         58.67394        54.99787         1.66472
C         59.81828        57.18524         1.37271
C         58.64910        56.47699         1.57701
C         59.81804        58.61479         1.36594
C         58.62605        59.32852         1.65297
C         59.82354        61.44932         1.17225
C         58.65682        60.75889         1.65171
C         59.75088        62.91079         0.95751
C         58.63931        63.65370         1.70575
C         59.97890        65.71181         1.54026
C         58.89730        65.06185         2.03260
C         62.20224        35.74217        -0.19216
C         62.19873        37.18304        -0.18323
C         60.96809        37.89759        -0.04255
C         62.27200        39.88773         0.67145
C         60.97904        39.26109         0.36260
C         62.29478        41.40162         0.87664
C         61.03895        42.13462         0.69124
C         62.33167        44.22897         0.83514
C         61.08769        43.55046         0.71123
C         62.35244        45.68083         1.24500
C         61.10066        46.43609         0.89120
C         62.38369        48.58584         1.03751
C         61.12300        47.84064         0.95855
C         62.38705        49.97761         1.17009
C         61.11491        50.65855         1.30888
C         62.82731        53.06370         1.48702
C         60.99333        51.96897         1.77660
C         62.52101        54.35443         1.03757
C         61.16283        54.96203         1.16382
C         62.26681        57.21366         0.64664
C         61.04356        56.45164         0.96796
C         62.28054        58.58312         0.70138
C         61.15206        59.33862         1.37963
C         62.19779        61.46355         0.45087
C         61.03377        60.78168         0.93155
C         62.09093        62.90962        -0.03363
C         60.97056        63.66546         0.62877
C         62.22602        65.78949         0.42711
C         61.03244        65.03098         0.81362
C         62.24126        67.16949         0.36036
C         64.63957        35.63525        -0.52627
C         63.35456        35.01526        -0.20069
C         64.68593        37.18424        -0.50148
C         63.44234        37.87897        -0.14906
C         64.74399        39.94122         0.29082
C         63.51740        39.23084         0.25519
C         64.76356        41.36709         0.48416
C         63.56668        42.10026         0.66295
C         64.79700        44.24024         0.61308
C         63.55444        43.52212         0.71617
C         64.79433        45.67399         0.62051
C         63.60635        46.42360         0.84797
C         64.86378        48.52540         0.62534
C         63.62839        47.83083         0.87907
C         64.87437        49.99045         0.55670
C         63.74249        50.72868         1.24870
C         64.74935        52.86546         0.09858
C         63.77117        52.22260         0.88239
C         64.67261        54.27046        -0.10250
C         63.51382        54.99937         0.27141
C         64.59931        57.23348        -0.37747
C         63.35080        56.44902        -0.01248
C         64.63573        58.66706        -0.07508
C         63.45870        59.32818         0.30062
C         64.59892        61.45671        -0.26458
C         63.38999        60.76524         0.23246
C         64.61115        62.95142        -0.35822
C         63.39558        63.67669         0.01488
C         64.67039        65.78733        -0.16275
C         63.43728        65.05572         0.11939
C         64.64058        67.23314        -0.11686
C         63.44217        67.88278         0.10211
C         67.16694        32.78828        -0.50324
C         66.00174        33.44136        -0.40003
C         67.19486        35.68656        -0.22370
C         65.92127        34.91312        -0.21359
C         67.22955        37.14049        -0.66157
C         65.96329        37.88250        -0.29032
C         67.24628        39.95577         0.10226
C         65.98252        39.22987         0.04027
C         67.23924        41.37610         0.24867
C         66.00611        42.08512         0.39067
C         67.24738        44.22623         0.32427
C         66.00625        43.51116         0.44564
C         67.23141        45.63922         0.23030
C         66.00649        46.37045         0.33658
C         67.16132        48.49714        -0.41160
C         66.00298        47.78883         0.27024
C         67.28414        49.92680         0.11143
C         65.97052        50.67226         0.08254
C         67.14383        52.85885        -0.94511
C         65.81567        52.03567        -0.59106
C         67.19083        54.27286        -0.38681
C         65.89323        54.99537        -0.54340
C         67.13327        57.20702        -0.11775
C         65.88918        56.49020        -0.53903
C         67.14711        58.67456        -0.24537
C         65.90149        59.37524        -0.18079
C         67.15357        61.54114         0.03991
C         65.89143        60.76606        -0.18776
C         67.10848        62.97469        -0.45107
C         65.90426        63.66885        -0.41566
C         67.03178        65.81194        -1.07049
C         65.84444        65.09722        -0.48750
C         67.17868        67.22622        -0.56363
C         65.93061        67.97763        -0.17336
C         67.14903        70.06276        -0.67796
C         65.99198        69.43700        -0.31759
C         69.31895        31.62016         1.10577
C         69.52864        32.83742         0.44604
C         68.52142        33.44831        -0.52029
C         69.65401        35.63914        -0.20124
C         68.48045        34.95188        -0.31666
C         69.68447        37.10146        -0.13052
C         68.50261        37.82665        -0.20724
C         69.70068        39.97500         0.08677
C         68.47507        39.26054        -0.02209
C         69.69990        41.36014         0.23288
C         68.47998        42.09609         0.25357
C         69.71812        44.26972         0.32392
C         68.48763        43.52514         0.26820
C         69.70443        45.65344         0.42167
C         68.47433        46.35061         0.19502
C         69.75012        48.54694         0.02960
C         68.51701        47.74825        -0.31529
C         69.76301        49.93627        -0.20371
C         68.47666        50.60066        -0.52387
C         69.70946        52.79696        -0.50617
C         68.45259        52.07895        -0.79239
C         69.65163        54.22720        -0.18957
C         68.36533        54.95681        -0.27968
C         69.67211        57.19587        -0.27286
C         68.41507        56.43337        -0.01774
C         69.63673        58.60753        -0.41533
C         68.38836        59.37671        -0.31971
C         69.68781        61.54166        -0.22531
C         68.39810        60.77552        -0.31667
C         69.58980        62.96265        -0.74582
C         68.35643        63.67263        -0.69901
C         69.52727        65.77079        -1.27643
C         68.33493        65.05866        -0.96872
C         69.52022        67.20207        -1.43128
C         68.35474        67.96974        -1.06526
C         69.57932        70.13152        -1.46323
C         68.33997        69.35524        -1.07025
C         69.30781        71.40827        -2.21738
C         71.54503        31.72825         2.04526
C         70.32212        31.06985         1.90642
C         71.76034        32.94745         1.40010
C         70.75825        33.51244         0.59745
C         72.19706        35.60323        -0.02261
C         70.91574        34.85044        -0.05892
C         72.14323        37.07690        -0.04304
C         70.97626        37.77557        -0.04330
C         72.11326        39.92934         0.67592
C         71.02812        39.28642        -0.16747
C         72.14001        41.26254         0.80796
C         71.01196        42.06623         0.26716
C         72.22969        44.34760         0.60328
C         71.02055        43.56473         0.26207
C         72.19164        45.67462         0.79129
C         70.90074        46.44947         0.89503
C         72.13542        48.62933         0.41499
C         70.94524        47.88014         0.36999
C         72.15947        49.98162         0.08641
C         70.96810        50.67251        -0.21776
C         72.14766        52.89232        -0.46772
C         70.92435        52.12620        -0.38553
C         72.16370        54.25077        -0.53223
C         70.96242        55.02608        -0.20330
C         72.06294        57.21233        -0.74005
C         70.89331        56.49606        -0.42678
C         72.03997        58.59003        -0.87088
C         70.84280        59.32130        -0.69215
C         71.94311        61.46602        -1.29261
C         70.84214        60.76071        -0.79414
C         71.94119        62.85267        -1.41920
C         70.76196        63.62270        -1.19412
C         71.89192        65.74603        -1.91041
C         70.73982        65.04095        -1.46346
C         71.85872        67.10143        -2.15047
C         70.68678        67.87445        -1.89265
C         71.62294        69.94032        -2.90717
C         70.64738        69.28843        -2.12504
C         71.45847        71.25278        -3.32897
C         70.25143        71.95617        -3.03173
O         66.51159        35.40616         1.05066
O         58.22302        52.71786        -0.25135
O         60.77035        55.53849        -0.16024
O         54.32915        61.00550         4.06493
O         68.74767        47.05407        -1.56597
O         53.03243        52.42992         2.36457
O         54.85770        53.80555        -0.35668
O         64.40099        62.12388        -1.60520
O         38.83643        52.12165         0.08906
O         67.66692        56.78672         1.20008
O         64.63514        36.40284        -1.75507
O         62.31548        40.47165         2.01695
O         57.21527        49.07179         2.28813
O         66.88508        67.43595         0.83882
O         58.54769        63.37569         0.27070
O         50.73693        51.04330         1.83376
O         57.87884        54.45679         2.81293
O         51.49692        60.09631         0.84304
O         63.60795        56.86777        -1.38501
O         71.79367        34.90380        -1.24569
O         71.24914        42.79057        -0.99411
O         53.67069        55.15630         2.90907
O         70.34999        54.59450         1.05482
O         44.29258        50.01963         0.67841
O         65.92170        55.76416        -1.81195
O         68.46482        51.08003        -1.88579
O         52.78998        58.57586         3.86093
O         62.05200        52.51475         2.51775
O         51.42593        56.34735         3.19541
O         69.97396        61.69659         1.24765
H         70.77544        62.25803         1.32907
O         61.74293        62.80493        -1.45379
H         62.55035        62.45726        -1.90892
O         66.79352        48.57112        -1.79944
H         67.39674        47.92273        -2.25781
O         71.36504        39.55260        -1.56173
H         71.39972        40.52731        -1.68189
O         53.98871        43.65414        -2.52029
H         54.88182        43.24935        -2.65240
O         50.44189        50.63528        -1.76552
H         49.78996        50.28090        -2.40683
O         70.65679        46.60986         2.34334
H         71.27959        47.29060         2.67632
O         61.55056        59.39162         2.80243
H         60.84206        59.86544         3.28824
O         67.64747        49.85557         1.52493
H         66.83853        49.65283         2.04327
O         66.75057        65.95810        -2.50741
H         66.61813        65.05990        -2.87862
O         65.22550        51.66703        -1.86503
H         65.90787        51.16876        -2.36939
O         67.22085        61.69679         1.52569
H         68.18291        61.76695         1.75732
O         62.36883        45.64112         2.72505
H         63.17512        45.15328         2.99754
O         70.17818        70.57323        -0.17599
H         70.98791        71.08081        -0.39892
O         55.79963        42.67312         1.66153
H         55.76980        41.85137         2.19531
O         58.37443        38.84553         2.02996
H         59.22618        38.42964         2.28417
O         46.07230        56.87960        -0.96633
H         45.26955        56.45431        -1.33715
O         67.09106        53.12624        -2.36987
H         66.31110        53.69374        -2.55431
O         56.61018        43.24924        -1.85310
H         56.97605        44.04539        -2.29408
O         67.30211        37.10169        -2.11797
H         67.37945        38.02150        -2.44685
O         46.15015        51.61165         1.68788
H         45.38550        50.98276         1.73900
O         57.24622        57.35118        -0.10178
H         58.01950        57.87544        -0.40570
O         64.12522        50.66242         2.66138
H         63.42809        51.14368         3.16475
O         44.18259        48.38050        -3.41320
H         44.91339        47.77291        -3.65837
O         69.04189        33.21127        -1.86112
H         69.91034        33.66417        -1.93836
O         46.31598        51.54921        -1.98492
H         46.26204        50.82330        -2.64218
O         52.45682        54.53464        -0.56556
H         51.66189        54.15431        -0.99566
H         38.85049        50.39732        -4.16947
H         36.68402        51.47992        -4.68366
H         36.54932        53.13766        -0.68627
H         35.49984        52.83008        -2.94655
H         39.44614        48.70303        -2.95054
H         39.05945        54.54524         0.88091
H         41.54713        47.42013        -2.85956
H         41.12227        55.90077         1.03395
H         45.02192        44.92007        -1.50953
H         42.95258        46.16635        -1.80481
H         44.81650        58.11712         1.44309
H         42.76574        56.82669         1.37868
H         46.71098        43.98712        -1.85105
H         46.49729        59.19227         1.07710
H         48.79111        42.75142        -1.69825
H         48.56610        60.34325         1.70416
H         52.38479        40.50571        -0.87741
H         50.39937        41.76351        -1.42138
H         52.20181        62.29485         3.34329
H         50.25973        61.36666         2.07360
H         53.91060        39.55849        -0.15926
H         55.15153        63.22519         4.74158
H         55.94659        38.35693         0.41266
H         57.02668        64.52091         3.72621
H         59.68744        36.33525        -0.91144
H         57.58141        37.49272        -0.48379
H         60.11619        66.77280         1.79026
H         58.20130        65.60451         2.68675
H         61.24977        35.22369        -0.01200
H         61.32588        67.74914         0.53977
H         63.32606        33.94151         0.03419
H         63.40522        68.98058         0.12886
H         67.15300        31.70404        -0.69188
H         65.05706        32.88080        -0.47357
H         67.15464        71.16099        -0.71655
H         65.08886        70.03821        -0.13891
H         68.36094        31.09264         0.99780
H         68.38982        71.97224        -2.00106
H         72.33756        31.29379         2.66993
H         70.14904        30.11505         2.42183
H         72.72342        33.46165         1.52800
H         73.09324        35.15474         0.45665
H         73.10384        37.61323        -0.05091
H         72.91918        39.31289         1.10180
H         72.95375        41.76631         1.35097
H         73.19666        43.82240         0.58004
H         73.13251        46.20448         1.00455
H         73.08304        48.14408         0.68852
H         73.12171        50.51075         0.10617
H         73.08956        52.34903        -0.62772
H         73.09950        54.76737        -0.78469
H         73.01955        56.68701        -0.85556
H         72.98362        59.11115        -1.07678
H         72.84148        60.92605        -1.62216
H         72.85090        63.33832        -1.79353
H         72.83562        65.21034        -2.07749
H         72.77600        67.59974        -2.49207
H         72.49219        69.37749        -3.27658
H         72.21483        71.72239        -3.97203
H         70.07675        72.93501        -3.50127
