         253
 CSIRO Nanostructure Databank - Neutral Graphene Oxide Data Set
C         30.19870        31.61524        -0.33330
C         30.39797        32.81542        -0.08778
C         30.58631        35.88929        -0.63693
C         30.57823        37.06737        -1.02541
C         30.65141        40.29349        -1.67557
C         30.66573        41.46853        -2.13005
C         32.53352        28.83978        -0.64208
C         31.37322        29.35125        -0.67578
C         32.76635        31.43952         0.72723
C         30.82220        30.40342         0.04732
C         32.67875        32.91760         0.96775
C         31.42624        33.68517         0.47150
C         32.67887        35.85195         0.38190
C         31.57336        35.09676         0.06606
C         32.77242        37.26563        -0.15734
C         31.47990        38.14230        -0.43105
C         32.84026        40.26611        -0.54980
C         31.80748        39.38892        -1.30790
C         32.85476        41.65050        -0.32718
C         31.28639        42.62755        -1.61650
C         33.10467        44.13442        -1.49902
C         32.09907        43.67334        -2.11373
C         35.27711        27.40502        -0.41884
C         35.09497        28.80291        -0.84402
C         33.80066        29.62005        -0.88788
C         35.12507        31.65159         0.09269
C         33.82501        30.87386         0.05964
C         35.02420        33.18739         0.02202
C         34.01155        33.66906         1.09838
C         35.12781        35.99623         1.19412
C         33.85574        35.21591         1.06377
C         35.12856        37.43193         0.78939
C         34.04476        38.02850        -0.01799
C         35.21061        40.31454         0.42067
C         33.96558        39.53350         0.05644
C         35.28996        41.75121         0.13923
C         34.06185        42.42602        -0.17402
C         35.37510        44.50667        -0.40305
C         34.19940        43.80898        -0.64468
C         35.82176        45.80920        -0.75505
C         37.57781        27.32970         0.48340
C         36.29531        26.77790        -0.10250
C         37.67123        28.69828        -0.26820
C         36.41243        29.49423        -0.58653
C         37.70763        31.69413        -0.38598
C         36.41468        30.94159        -0.19593
C         37.67208        33.15042        -0.02156
C         36.38466        33.92911         0.20073
C         37.78875        35.95823         1.08211
C         36.44666        35.30166         0.85156
C         37.98768        37.22994         1.54823
C         36.10324        38.25366         1.23197
C         37.73047        40.20267         1.02006
C         36.48481        39.49404         0.48365
C         37.70922        41.69479         0.86947
C         36.49095        42.40114         0.37350
C         37.70033        44.64519         0.85698
C         36.48010        43.87809         0.41730
C         37.82671        46.14042         0.52755
C         36.81121        46.51058        -0.47789
C         40.19316        24.49297         0.39448
C         39.10806        25.20367         0.42057
C         40.17782        27.26958         0.20804
C         38.85807        26.53516         0.35132
C         40.11014        28.74566         0.43270
C         38.96624        29.45518        -0.18658
C         40.14359        31.61260         0.18650
C         38.97670        30.93680        -0.14923
C         40.21908        33.03873         0.20679
C         38.95062        33.75177         0.46047
C         40.26561        35.93144         0.36053
C         39.02653        35.18212         0.81388
C         40.39091        37.31509         0.99224
C         39.12685        38.08134         1.19919
C         40.25129        40.19716         0.49915
C         39.03761        39.43774         0.97633
C         40.28711        41.71153         0.53750
C         38.99792        42.45213         0.68140
C         40.33604        44.57227         1.29808
C         38.99746        43.89091         1.13956
C         40.39980        46.12965         1.43585
C         39.11607        46.84740         0.78178
C         40.61178        48.72099         0.29556
C         39.54593        48.08583         0.14086
C         42.79922        24.47928         0.21070
C         41.46585        24.97792         0.33829
C         42.86958        27.16909         0.32398
C         41.51218        26.50774         0.18646
C         43.05572        28.36803         0.94953
C         41.09560        29.46591         1.01036
C         42.70537        31.51210         0.74650
C         41.30480        30.90212         0.78666
C         42.70551        32.89461         0.11057
C         41.45924        33.70360         0.31340
C         42.78828        35.79234         0.18800
C         41.54139        35.11167         0.37719
C         42.76816        37.28354         0.05762
C         41.63970        38.03691         0.67969
C         42.85037        40.25781         0.36060
C         41.56996        39.50011         0.37964
C         42.83592        41.67416         0.53515
C         41.59492        42.42472         0.74958
C         42.85412        44.55855         0.87873
C         41.58750        43.79294         0.98514
C         42.90470        46.00364         1.25237
C         41.75548        46.76109         1.06434
C         43.14986        48.68988         0.90321
C         41.83353        48.19962         0.78481
C         43.87557        25.05568        -0.00132
C         45.36511        27.07278         0.44893
C         44.13919        26.52295        -0.29216
C         45.40030        28.64521         0.48139
C         44.18758        29.25746         0.74675
C         45.29728        31.49798         0.48391
C         44.07875        30.77213         1.05282
C         45.28707        32.88298        -0.04877
C         43.98633        33.63072        -0.15885
C         45.21541        35.86298        -0.36584
C         43.97383        35.11081        -0.05871
C         45.31960        37.33166         0.03079
C         44.01432        38.07966        -0.13271
C         45.28751        40.23804        -0.08830
C         44.04151        39.55223         0.12561
C         45.25850        41.66489         0.01517
C         44.08856        42.33771         0.40988
C         45.47678        44.42105         0.80841
C         44.12277        43.81421         0.55984
C         45.52902        45.86548         1.29081
C         44.25020        46.64218         1.45568
C         44.16462        48.09620         1.34062
C         47.72984        27.39464        -0.06405
C         46.70625        26.70778        -0.13183
C         47.91046        28.78732         0.25035
C         46.62456        29.40826         0.47428
C         47.76905        31.63982         0.68800
C         46.52479        30.84369         0.48307
C         47.83569        33.07456         0.32927
C         46.58575        33.65251        -0.23190
C         47.78460        35.94574        -0.31062
C         46.53350        35.14166        -0.47442
C         47.75496        37.30563        -0.42991
C         46.45701        38.04248        -0.71843
C         47.71186        40.22564        -0.73898
C         46.49896        39.53598        -0.39182
C         47.63719        41.69848        -1.06407
C         46.37452        42.45913        -0.62629
C         47.77826        44.63265        -0.53244
C         46.61258        43.79414         0.05726
C         47.77048        45.87200         0.31917
C         46.82825        46.41724         0.89398
C         50.39324        29.14380        -0.13887
C         49.11141        29.48880         0.34374
C         50.30976        31.73228         0.86396
C         49.08818        30.89610         0.84828
C         50.29084        33.09251         0.59008
C         49.02511        33.76621         0.28847
C         50.23133        35.98433         0.28599
C         49.09014        35.16679        -0.30028
C         50.25461        37.47332        -0.00600
C         48.97195        38.15450        -0.33578
C         50.14469        40.19940        -1.49166
C         48.91397        39.54354        -0.87748
C         50.10282        41.71142        -1.35182
C         48.97427        42.40743        -0.94327
C         50.31185        44.23945        -0.36245
C         49.03429        43.81098        -0.56920
C         51.49644        29.63462        -0.48084
C         52.85945        31.83157        -0.58145
C         52.19544        30.75736         0.04362
C         52.55137        32.97429        -0.02101
C         51.56008        33.81183         0.40180
C         52.62580        36.21015         0.50033
C         51.52852        35.26046         0.64626
C         52.64303        37.43975         0.33300
C         51.56189        38.13450        -0.41514
C         52.56714        40.47965        -0.69051
C         51.52469        39.51370        -0.97173
C         52.69268        41.65755        -0.31490
C         51.99808        42.83100        -0.72831
C         51.51872        43.91108         0.01580
O         46.03636        32.89056        -1.33742
O         33.73216        37.35791        -1.26929
O         40.73285        39.71912        -0.80850
O         51.81405        38.35657        -1.80318
O         39.58834        44.03697         2.45776
O         31.62480        42.38041        -0.26896
O         51.18376        42.44097        -1.90299
O         36.63112        44.40296         1.82272
O         46.49119        43.62105         1.49507
O         38.00633        46.96038         1.69461
O         43.18142        33.03067        -1.25432
O         34.24019        39.96589         1.44659
O         51.50266        31.12947         1.28821
O         50.56091        35.65104         1.65933
O         35.96019        29.17980        -1.94457
O         39.06460        34.17992         1.89135
O         37.53937        41.04429         2.18430
O         31.63786        30.70171         1.19037
O         40.86379        26.94319        -1.05878
O         49.56067        38.20692         1.04825
O         38.53837        28.75811        -1.42021
O         34.30157        35.74607         2.36492
O         42.05238        28.84272         1.80834
O         43.17557        37.72529        -1.28483
O         36.94645        37.84935         2.25168
O         48.26720        31.22148         2.01696
O         41.87821        31.60362         1.94419
O         45.77377        35.51202        -1.66490
O         31.66422        33.39410         1.88372
O         47.18548        41.85553        -2.48467
O         35.95310        31.14507         1.18897
O         44.99574        46.08472         2.59197
O         41.38576        37.55632         2.04138
O         43.41541        44.50470        -0.52169
O         37.75665        32.71155        -1.42308
O         39.57145        42.27660        -0.64033
O         49.41961        34.89532        -1.74375
O         36.38470        35.11621        -0.64267
O         46.01249        42.64057        -2.05362
O         39.96463        36.20306        -1.04293
H         40.75832        36.58223        -1.47978
O         45.27949        26.61926         1.78547
H         46.07381        26.90859         2.27980
O         45.63065        37.32686         1.44441
H         45.93362        38.22168         1.70894
O         44.24387        30.87363         2.48634
H         43.34885        30.78675         2.89304
O         30.93630        38.61834         0.76856
H         30.65320        37.87177         1.33537
O         44.25460        26.77016        -1.66898
H         43.45071        26.44609        -2.12581
O         47.39248        44.97647        -1.85268
H         48.17659        45.26160        -2.36478
O         40.32441        46.43062         2.82450
H         39.70458        45.78817         3.24480
O         32.38962        39.00422        -2.54361
H         31.87466        38.26136        -2.92388
O         33.68206        30.20001        -2.18249
H         34.50263        29.99606        -2.69342
O         34.48283        33.51118        -1.26250
H         35.02722        34.23346        -1.65636
O         37.36103        27.64590         1.85699
H         37.29895        26.81559         2.37342
O         49.58100        36.17972        -2.39020
H         48.82428        36.20579        -3.02728
O         34.58687        33.29045         2.34825
H         34.07988        33.71717         3.07239
O         46.23205        37.97176        -2.14232
H         45.28637        38.15943        -2.32623
O         36.85303        39.11244        -0.86592
H         36.19275        38.48940        -1.23865
O         50.10891        39.90545        -2.89856
H         50.78229        40.46164        -3.34472
