         316
 CSIRO Nanostructure Databank - Neutral Graphene Oxide Data Set
C         30.64607        31.63951        -0.46791
C         30.49625        32.84978        -0.71711
C         30.39427        35.99031        -0.20237
C         30.37640        37.17078         0.15129
C         30.48189        40.35042         0.85770
C         30.40543        41.55948         1.05749
C         33.06389        28.87283        -1.05954
C         32.00631        29.41765        -0.68074
C         32.87815        31.57753        -1.48384
C         31.72824        30.73876        -0.11474
C         32.86780        33.08884        -1.38531
C         31.52298        33.79714        -1.18635
C         32.82130        35.91001        -0.38728
C         31.52302        35.23314        -0.77443
C         32.70159        37.08321         0.64973
C         31.57384        38.10236         0.24003
C         32.76612        40.02186         1.59911
C         31.49288        39.32594         1.12071
C         32.82997        41.54550         1.61195
C         31.45776        42.36999         1.76636
C         32.87633        44.24617         1.05599
C         31.77675        43.72775         1.22312
C         35.71164        27.39977        -1.66030
C         35.53024        28.82929        -2.02379
C         34.27778        29.51982        -1.53648
C         35.45165        31.71082        -1.75439
C         34.21248        30.89096        -1.49440
C         35.34015        33.14985        -1.26778
C         34.14664        33.80582        -1.08678
C         35.28618        35.88980        -0.34289
C         34.11944        35.18777        -0.56983
C         35.28526        37.19712         0.38794
C         34.02754        37.78452         0.92975
C         35.13987        40.10437         0.82647
C         34.09349        39.22267         1.55275
C         35.30380        41.41108         1.71094
C         34.01956        42.18689         1.42658
C         35.22776        44.30732         2.05857
C         34.24181        43.66003         1.04405
C         35.46334        45.73214         1.75958
C         37.93094        27.35820        -0.76495
C         36.70599        26.76239        -1.31438
C         37.76499        28.84516        -0.69793
C         36.74584        29.51472        -1.31774
C         37.82306        31.66406        -0.90000
C         36.70539        30.98484        -1.28427
C         37.79046        33.12510        -0.70973
C         36.63488        33.93543        -1.28646
C         37.75407        35.95679        -0.35199
C         36.58236        35.30093        -0.61750
C         37.80791        37.38732         0.16449
C         36.47521        38.08465         0.23583
C         37.54339        40.37561        -0.05433
C         36.43710        39.42694         0.42808
C         37.89680        41.43953         1.01105
C         36.65560        42.17568         1.56559
C         37.83692        44.48075         1.34988
C         36.67927        43.68431         1.79637
C         37.80068        46.01266         1.19581
C         36.33882        46.36207         1.16471
C         39.94403        24.61161         0.90077
C         39.01165        25.23441         0.38873
C         39.87894        27.39392         1.08252
C         38.96762        26.66241         0.03567
C         39.97303        28.91083         0.76752
C         38.73427        29.64166         0.17472
C         40.29005        31.70732        -0.10886
C         39.12125        30.89098        -0.63970
C         40.31788        33.06249        -0.24733
C         39.05892        33.83821        -0.40699
C         40.33115        36.05278        -0.34192
C         39.06018        35.30602        -0.80376
C         40.17637        37.52178        -0.78003
C         38.79644        38.14495        -0.72722
C         40.15550        40.41739        -0.61991
C         38.83734        39.66835        -0.55649
C         40.19757        41.84295        -0.14628
C         38.97343        42.41748         0.51092
C         40.30625        44.54399         0.60094
C         39.16443        43.74169         1.23926
C         40.07452        45.89255         0.34240
C         38.63900        46.31804        -0.05237
C         39.83472        48.39312        -0.73537
C         38.80148        47.74171        -0.51925
C         42.46214        24.58692         1.27953
C         41.13070        25.12588         1.66176
C         42.47661        27.33437         0.78578
C         41.20334        26.65754         1.23280
C         42.52190        28.78766         1.35451
C         41.30601        29.61172         0.88213
C         42.72588        31.60006         0.32800
C         41.50804        30.97935         0.30990
C         42.85375        33.00489        -0.23328
C         41.58705        33.83187         0.05047
C         42.89440        35.90265        -0.43229
C         41.59766        35.19036        -0.73300
C         43.09379        37.16014        -0.87944
C         41.21647        38.29913        -1.20620
C         42.69790        40.22912        -0.61625
C         41.44288        39.68815        -0.83304
C         42.79479        41.64552        -0.02885
C         41.51734        42.48550         0.03517
C         42.85526        44.53803         0.05306
C         41.57414        43.84617         0.33108
C         43.15332        45.82575         0.40614
C         41.13141        46.85432         0.38424
C         42.52589        48.48180        -0.52906
C         41.17241        48.08599        -0.28788
C         43.50676        25.13222         0.91262
C         45.08183        27.19488         0.59961
C         43.86500        26.55106         1.25869
C         45.17702        28.68653         0.98602
C         43.90043        29.47309         1.11461
C         45.21639        31.68117         1.10023
C         44.03479        30.85313         0.46242
C         45.24651        33.10389         0.55695
C         44.09194        33.75665         0.25960
C         45.33312        35.90432        -0.22582
C         44.03247        35.28304         0.33584
C         45.36230        37.42616        -0.26903
C         44.18128        38.05949        -0.55205
C         45.20155        40.23650        -0.75425
C         44.02522        39.52410        -0.69342
C         45.18587        41.71141        -1.09180
C         43.91093        42.42547        -0.66862
C         45.13785        44.53205        -1.01249
C         43.93041        43.78536        -0.59695
C         44.90854        46.03145        -1.35162
C         44.33147        46.68722        -0.07830
C         43.65417        48.01237        -0.33365
C         47.50457        27.29294         0.59749
C         46.47828        26.67700         0.89152
C         47.73034        28.70395         0.12131
C         46.52515        29.42097         0.79279
C         47.83467        31.62652         0.61579
C         46.56402        30.92151         0.92584
C         47.80837        33.11868         0.87775
C         46.58503        33.76229         0.21935
C         47.85648        36.06107         0.31563
C         46.55072        35.29078         0.49857
C         47.84586        37.41321         0.15910
C         46.69470        38.02886        -0.67071
C         47.62050        40.31110         0.08514
C         46.61020        39.60541        -0.85476
C         47.68902        41.80970        -0.23316
C         46.32126        42.49154        -0.37355
C         47.62426        44.50116        -1.48394
C         46.34000        43.89631        -0.97600
C         47.36731        45.93731        -1.67996
C         46.27818        46.50911        -1.71556
C         50.24419        29.00418        -0.29492
C         49.05185        29.35773         0.53024
C         50.25325        31.66743         0.23958
C         49.04874        30.94037         0.42611
C         50.33856        33.03074         0.93651
C         49.11207        33.83971         0.41948
C         50.33798        36.08590         0.26918
C         49.10141        35.35194         0.84652
C         50.32357        37.53203         0.78016
C         48.97276        38.26205         0.75928
C         50.26074        40.48757         0.16769
C         49.02956        39.59226        -0.02718
C         50.28631        41.69937        -0.45839
C         48.99034        42.46816        -0.57409
C         50.28003        44.37297        -1.26517
C         48.93048        43.80850        -1.29818
C         51.30785        29.60063        -0.48807
C         52.66814        31.78183        -0.11738
C         51.43957        31.08530        -0.63876
C         52.70522        32.91971         0.35332
C         51.67344        33.85738         0.78314
C         52.74047        36.29090         0.25585
C         51.66488        35.33919         0.59963
C         52.69861        37.52538         0.31015
C         51.58312        38.35463         0.82452
C         52.63631        40.64916         0.38345
C         51.49390        39.87334         0.93214
C         52.70496        41.79215        -0.08251
C         51.64061        42.38462        -0.94713
C         51.35032        43.86439        -0.91764
O         48.42569        42.56068         0.79709
O         46.88667        30.02707         2.05704
O         39.16994        42.62290        -0.90366
O         51.05022        37.71430         2.02823
O         40.32012        29.64834         1.97942
O         48.24157        43.76102        -2.57306
O         51.82127        34.74029         1.91233
O         42.23001        46.52251         1.19962
O         46.86235        37.48823        -1.97553
O         44.70301        29.14178         2.28063
O         31.84335        39.32212         2.51403
O         39.23277        26.97462        -1.33493
O         35.51281        31.78429        -3.29640
O         32.06134        33.63971        -2.50740
O         34.87261        36.92047         1.78084
O         32.21049        36.11265        -1.71640
O         42.24435        37.64899        -1.87589
O         38.10512        33.53236         0.67318
O         39.28754        40.27019        -1.81126
O         37.03175        42.74017         2.86235
O         45.30248        41.85524        -2.51873
H         45.97992        41.19446        -2.81890
O         43.20440        41.45431         1.36764
H         44.14227        41.75816         1.45868
O         38.23544        37.43615         1.55508
H         37.51761        37.05621         2.10729
O         39.07307        35.34682        -2.24797
H         38.78221        36.25483        -2.51678
O         36.96283        41.07195        -1.17314
H         37.71427        41.48408        -1.67322
O         43.95470        46.16259        -2.38193
H         44.31741        45.77087        -3.20302
O         41.66138        34.00778         1.48568
H         40.89215        34.56270         1.76503
O         39.19473        27.27254         2.35341
H         39.54393        27.99988         2.92056
O         47.65196        33.19514         2.30079
H         48.48078        32.83411         2.70843
O         44.97350        31.83502         2.50309
H         45.32994        31.03354         2.95429
O         51.19860        31.47304        -1.96228
H         51.84608        31.03596        -2.55215
O         50.24561        36.18714        -1.14903
H         49.94841        35.31585        -1.51154
O         31.18032        42.41903         3.13291
H         30.31428        42.85016         3.27943
O         42.42863        27.43948        -0.64267
H         42.06189        26.61357        -1.02357
O         47.02605        39.90727        -2.20835
H         47.05069        38.99761        -2.64633
O         49.25831        39.12106        -1.37077
H         49.13461        39.85526        -2.01012
O         45.85366        42.62642         0.99844
H         46.63075        42.89998         1.53868
O         31.82253        38.61933        -1.04724
H         31.78702        37.87437        -1.69857
O         42.34370        28.66324         2.77020
H         43.23479        28.51361         3.17060
O         34.46368        38.97754         2.91281
H         33.63634        38.77186         3.40234
O         37.92999        30.04529         1.29938
H         38.54649        30.37104         1.99597
O         41.55287        34.88367        -2.14122
H         41.69977        35.72906        -2.62346
O         39.59750        30.38319        -1.91154
H         39.77436        31.13656        -2.51246
O         46.72452        33.43527        -1.19002
H         46.06878        34.00316        -1.68639
O         34.84949        43.67781        -0.24515
H         34.89751        44.60644        -0.55750
O         44.96320        27.16103        -0.81949
H         44.78609        26.23635        -1.09516
O         48.64180        38.48416         2.13991
H         48.74394        37.61956         2.60046
O         43.08204        32.81252        -1.65584
H         42.73621        33.60948        -2.13937
O         51.81957        41.98103        -2.28059
H         52.68739        42.29954        -2.60243
O         43.84407        35.59733         1.74165
H         43.04725        35.07355         2.02183
O         47.59076        28.74840        -1.28205
H         46.77340        28.26018        -1.53170
O         34.48375        40.47379        -0.40190
H         35.14114        40.92720        -0.98467
O         38.48409        40.72412         2.11352
H         38.68463        41.39144         2.81238
O         32.19268        31.16323        -2.62369
H         31.66313        31.92583        -2.96087
O         34.83005        44.07515         3.38544
H         34.92815        43.11235         3.58487
O         44.45195        30.55961        -0.90082
H         44.12824        31.29129        -1.48502
O         40.43309        36.13231         1.09403
H         39.72925        36.72153         1.46602
O         38.14677        45.48667        -1.08627
H         38.68510        45.61264        -1.89480
O         51.28423        40.22674         2.29038
H         51.03855        39.40467         2.77943
O         36.89929        34.15867        -2.70519
H         36.11409        34.59975        -3.09365
O         38.43249        46.63126         2.31178
H         37.82108        46.60067         3.07734
O         40.93901        25.05450         3.05066
H         40.09523        25.51908         3.25521
O         45.35640        46.76123         0.89681
H         45.00879        47.21534         1.69143
O         32.11802        30.86442         1.19539
H         32.66528        30.09884         1.46186
O         39.62350        43.41882         2.58236
H         39.74207        44.25843         3.07588
O         45.31359        35.50368        -1.62576
H         45.93422        36.15470        -2.08993
O         50.23232        32.76123         2.34707
H         50.61544        33.54791         2.81055
O         49.29541        29.03650         1.88113
H         50.18209        29.35772         2.14343
O         47.07470        40.20777         1.39853
H         47.69213        40.64242         2.02477
O         35.21195        41.17750         3.12587
H         36.01277        40.70039         3.43053
O         44.02837        26.62666         2.65020
H         43.34718        26.07685         3.09228
O         32.28860        36.48186         1.88458
H         33.09886        36.22550         2.38010
O         38.23727        37.93923        -2.07039
H         38.61142        38.65370        -2.64000
O         35.61130        28.97321        -3.43257
H         35.47720        29.92029        -3.67286
O         49.26962        33.75739        -1.01141
H         48.37227        33.67332        -1.43521
O         36.88452        31.69998        -3.72760
H         37.20138        32.64167        -3.61219
O         46.41085        35.43350         1.93611
H         45.46334        35.29229         2.19868
O         49.13414        35.45210         2.27832
H         48.21309        35.25005         2.58919
