         637
 CSIRO Nanostructure Databank - Neutral Graphene Oxide Data Set
C         22.95849        27.38799        -0.64111
C         22.93264        28.71616        -0.86977
C         22.89472        31.70324        -0.62049
C         22.91873        33.05265        -0.67931
C         22.92568        35.99653        -0.57971
C         22.93091        37.36425        -0.51815
C         22.94414        40.32034        -0.38406
C         22.99722        41.65086        -0.59131
C         23.11928        44.60945        -0.80370
C         23.08632        45.99388        -0.68796
C         25.39607        24.59304        -0.01166
C         24.20483        25.28168        -0.22077
C         25.43262        27.38276        -0.44496
C         24.20139        26.66791        -0.44212
C         25.44542        28.80224        -0.63065
C         24.18139        29.54725        -1.02150
C         25.39301        31.67316        -0.42244
C         24.10612        30.88740        -0.25930
C         25.37094        33.09239        -0.39343
C         24.13528        33.81560        -0.49025
C         25.35945        35.95122        -0.25558
C         24.13218        35.23365        -0.44912
C         25.35974        37.37487        -0.15062
C         24.13616        38.10108        -0.28698
C         25.35763        40.19661         0.08640
C         24.15080        39.52055        -0.18629
C         25.26957        41.67748         0.37007
C         24.32729        42.37399        -0.62244
C         25.32973        44.56197         0.19369
C         24.23304        43.87255        -0.36419
C         25.32786        45.97430         0.26545
C         24.19649        46.69727        -0.18163
C         25.32903        48.86855         0.03149
C         24.22186        48.14701        -0.25383
C         27.93808        23.16767         0.42220
C         27.89172        24.56084         0.18240
C         26.63783        25.26498        -0.00421
C         27.88622        27.39763        -0.21473
C         26.65102        26.67851        -0.21053
C         27.88400        28.81469        -0.37446
C         26.63823        29.51557        -0.52607
C         27.83904        31.70014        -0.48131
C         26.62237        30.98440        -0.50976
C         27.83779        33.10166        -0.29799
C         26.60145        33.81199        -0.28726
C         27.81056        35.93578         0.06103
C         26.59078        35.23479        -0.17368
C         27.80753        37.35578         0.18921
C         26.58702        38.07926         0.07507
C         27.81963        40.21930         0.45362
C         26.58041        39.50516         0.20530
C         27.79980        41.68122         0.61947
C         26.60380        42.36480         0.48685
C         27.82164        44.58080         0.88143
C         26.50790        43.81322         0.70689
C         27.84233        46.02804         0.65155
C         26.53431        46.71987         0.70938
C         27.86307        48.90645         0.41792
C         26.54606        48.22868         0.57089
C         27.91251        50.30968         0.36961
C         30.38220        23.17385         0.43786
C         29.14131        22.49875         0.55435
C         30.36923        24.57818         0.20990
C         29.12501        25.27293         0.10056
C         30.35186        27.39647        -0.19046
C         29.11887        26.69165        -0.08898
C         30.33628        28.82710        -0.33464
C         29.12196        29.51693        -0.41062
C         30.35058        31.70442        -0.21714
C         29.13658        30.98755        -0.75921
C         30.32360        33.07759         0.01116
C         29.06451        33.82117        -0.05547
C         30.23284        35.89779         0.73862
C         29.02888        35.19038         0.18121
C         30.26013        37.37729         0.44054
C         29.04162        38.08193         0.36724
C         30.30598        40.19687         0.90117
C         29.01453        39.51550         0.50149
C         30.31456        41.70014         0.73044
C         29.05353        42.41076         0.77320
C         30.28659        44.56548         0.70676
C         29.06687        43.81560         0.79492
C         30.27589        45.93662         0.50342
C         29.04033        46.69836         0.46301
C         30.29539        48.86060         0.19901
C         29.06869        48.16250         0.34614
C         30.33333        50.27336         0.14694
C         29.11895        50.98386         0.25344
C         32.89423        20.40978         0.89519
C         31.69409        21.08528         0.80761
C         32.87223        23.18149         0.35453
C         31.64324        22.47400         0.53507
C         32.85868        24.58111         0.09379
C         31.60690        25.29052         0.04068
C         32.82679        27.39581        -0.62748
C         31.57867        26.68465        -0.17843
C         32.82048        28.86948        -0.32091
C         31.59847        29.55600        -0.30336
C         32.80845        31.67442         0.02057
C         31.58316        30.97812        -0.15785
C         32.79301        33.09050         0.19979
C         31.55124        33.78839         0.24555
C         32.72843        35.91301         0.54954
C         31.53042        35.19430         0.45070
C         32.69869        37.35833         0.62403
C         31.50706        38.05883         0.47316
C         32.80081        40.25999         0.53887
C         31.50295        39.54968         0.20935
C         32.79236        41.67551         0.65534
C         31.52617        42.37314         0.71899
C         32.83423        44.54711         0.68484
C         31.55952        43.84168         1.06408
C         32.83707        45.93534         0.48458
C         31.55821        46.62319         0.21027
C         32.84728        48.83295         0.16857
C         31.56319        48.11551         0.03476
C         32.84172        50.25331         0.03858
C         31.60688        50.97196        -0.02362
C         32.85568        53.03672        -0.40105
C         31.65199        52.36043        -0.24003
C         35.44238        18.97196         1.06171
C         35.38580        20.36639         0.79057
C         34.13410        21.07619         0.71398
C         35.35540        23.17559         0.26438
C         34.12216        22.47650         0.44533
C         35.35085        24.58963         0.02795
C         34.10212        25.29529        -0.04859
C         35.31478        27.42231        -0.25319
C         34.09965        26.69440        -0.23974
C         35.30393        28.86066        -0.25843
C         34.05115        29.56698        -0.21016
C         35.28909        31.69659         0.06561
C         34.05222        30.97817        -0.03014
C         35.28496        33.10590         0.30228
C         34.02358        33.79382         0.35326
C         35.19947        35.89384         0.64574
C         33.97800        35.20701         0.49559
C         35.23651        37.35826         0.83923
C         33.95512        38.10142         0.81642
C         35.26142        40.24307         0.70318
C         34.00108        39.56319         0.61598
C         35.26667        41.66842         0.72892
C         34.02987        42.37689         0.72974
C         35.28762        44.51463         0.63896
C         34.04407        43.81952         0.70281
C         35.26939        45.93842         0.60130
C         34.06111        46.66075         0.46394
C         35.27934        48.84909         0.31993
C         34.05694        48.12069         0.32605
C         35.31191        50.24113         0.04184
C         34.07995        50.95747        -0.08220
C         35.35528        53.04255        -0.52716
C         34.09241        52.36043        -0.32944
C         35.39949        54.41066        -0.89916
C         37.87919        18.95958         0.89278
C         36.64002        18.29432         1.11152
C         37.85370        20.36061         0.62870
C         36.60973        21.06487         0.57931
C         37.82360        23.15678         0.06132
C         36.59208        22.47215         0.32141
C         37.82593        24.58056        -0.17933
C         36.57520        25.28944        -0.15364
C         37.76616        27.45521        -0.37843
C         36.55608        26.71892        -0.25128
C         37.74515        28.84706        -0.37399
C         36.52125        29.57871        -0.26352
C         37.73630        31.77302        -0.14006
C         36.52676        31.02027        -0.12531
C         37.77665        33.13201         0.25164
C         36.51845        33.80490         0.50371
C         37.50945        36.01505         1.26476
C         36.40957        35.21353         0.77222
C         37.69402        37.35622         1.00742
C         36.50365        38.06353         0.41101
C         37.73980        40.19825         0.78956
C         36.49690        39.53565         0.72369
C         37.75538        41.63293         0.76337
C         36.52541        42.36057         0.74116
C         37.77889        44.48341         0.68787
C         36.52605        43.78744         0.70175
C         37.79806        45.89672         0.61078
C         36.54364        46.64500         0.76261
C         37.79743        48.84529         0.26644
C         36.54574        48.17394         0.61336
C         37.79710        50.21183        -0.00614
C         36.55879        50.93873        -0.06711
C         37.83204        53.01162        -0.58866
C         36.58053        52.33193        -0.37985
C         37.82965        54.34374        -1.07124
C         36.59294        55.03247        -1.19569
C         40.38801        16.14935         1.03912
C         39.20178        16.84205         1.11527
C         40.34578        18.99756         0.77080
C         39.13714        18.26712         0.94271
C         40.32551        20.36437         0.45964
C         39.07441        21.05820         0.36012
C         40.26005        23.08946        -0.53296
C         39.03189        22.43647         0.03449
C         40.28723        24.59375        -0.37770
C         39.05380        25.27087        -0.35523
C         40.27447        27.45938        -0.13028
C         39.05513        26.74133        -0.71581
C         40.28881        28.91937        -0.51812
C         38.99115        29.58732        -0.65384
C         40.28501        31.77848        -0.49368
C         38.97859        31.10603        -0.58921
C         40.26240        33.28591        -0.55520
C         39.06313        33.83060         0.21293
C         40.33552        35.93694         0.78730
C         39.28518        34.97775         0.95505
C         40.21588        37.30081         1.04154
C         38.96515        38.05139         1.06776
C         40.26691        40.15841         0.48449
C         38.98090        39.44135         0.85880
C         40.25059        41.64395         0.76558
C         39.01692        42.33557         0.75897
C         40.24730        44.47634         0.76317
C         39.01329        43.76427         0.73637
C         40.22864        45.89710         0.64664
C         39.02432        46.59441         0.51850
C         40.30246        48.75526         0.15409
C         39.01385        48.00543        -0.02933
C         40.24559        50.18722        -0.00533
C         39.06532        50.92374        -0.11737
C         40.29818        53.12025        -0.38608
C         39.09035        52.36202        -0.34149
C         40.31662        54.41050        -1.05384
C         39.07224        54.94861        -1.48732
C         40.15769        56.52457        -3.01376
C         39.02542        56.03548        -2.41695
C         42.83210        16.15450         0.72835
C         41.63457        16.82640         0.89477
C         42.87695        19.00226         0.53834
C         41.65434        18.31821         1.10214
C         42.83897        20.35686         0.30198
C         41.57760        21.08929         0.23768
C         42.75644        23.12185        -0.60849
C         41.54272        22.41508        -0.13757
C         42.76639        24.59903        -0.65834
C         41.52862        25.29724        -0.48896
C         42.73988        27.42515        -0.66686
C         41.55548        26.73077        -0.46723
C         42.71920        28.89416        -0.88080
C         41.45208        29.63450        -0.66698
C         42.73528        31.88803        -0.95010
C         41.45819        31.08804        -0.67122
C         42.74110        33.23115        -0.22018
C         41.55965        33.90227        -0.06557
C         42.83012        35.94899         0.65785
C         41.56404        35.39790         0.10047
C         42.83451        37.30106         1.17827
C         41.46956        38.07488         1.25333
C         42.72824        40.21748         1.08818
C         41.52514        39.50720         1.02027
C         42.75176        41.63375         0.90645
C         41.48810        42.34783         0.82699
C         42.74659        44.48783         0.69669
C         41.49007        43.76689         0.82533
C         42.74468        45.86241         0.54536
C         41.50666        46.65222         0.88497
C         42.76706        48.72600         0.29388
C         41.48833        48.06440         0.35498
C         42.73927        50.16640        -0.05113
C         41.48832        50.92474         0.21633
C         42.86692        53.01483         0.01438
C         41.50882        52.42693         0.13542
C         42.81338        54.95740        -0.98124
C         41.50787        55.13971        -1.49667
C         42.63195        56.54513        -3.18575
C         41.43769        56.07201        -2.57660
C         44.05078        16.85233         0.53328
C         45.34447        18.92640         0.04609
C         44.10265        18.23697         0.40836
C         45.35350        20.32535        -0.10418
C         44.12994        21.13173         0.24914
C         45.31034        23.17214        -0.66312
C         44.05612        22.40085        -0.56312
C         45.25843        24.57586        -0.84158
C         43.98688        25.28742        -0.77606
C         45.21548        27.43711        -0.79356
C         43.99356        26.72756        -0.78650
C         45.26146        28.88300        -0.68685
C         44.01884        29.65457        -0.92062
C         45.17486        31.74031        -0.29305
C         44.02250        31.11552        -0.67811
C         45.21439        33.17758        -0.05076
C         44.01146        33.89518         0.01775
C         45.27347        35.96311         0.61006
C         44.03513        35.28562         0.40394
C         45.26619        37.38844         0.85518
C         44.06136        38.06564         1.07803
C         45.27603        40.25133         1.10723
C         44.01931        39.51308         1.50182
C         45.26214        41.64053         0.97191
C         43.99378        42.35688         0.88284
C         45.25418        44.48939         0.66036
C         44.00520        43.75581         0.70251
C         45.26801        45.88515         0.47324
C         43.98299        46.55875         0.05405
C         45.23760        48.77585         0.36020
C         43.95684        48.04333         0.28458
C         45.26277        50.24964         0.05332
C         43.98702        50.88619        -0.38028
C         45.23401        53.01637        -0.87561
C         43.98638        52.36700        -0.37916
C         45.25540        54.44302        -1.40863
C         43.99622        55.24205        -1.66686
C         43.87855        56.06340        -2.81307
C         47.73073        18.90398        -0.45743
C         46.55923        18.22818        -0.16488
C         47.75794        20.31170        -0.59681
C         46.53983        21.02345        -0.44853
C         47.74374        23.17023        -0.87795
C         46.52691        22.46677        -0.64108
C         47.71764        24.58575        -1.02467
C         46.47550        25.28466        -0.98118
C         47.66737        27.42504        -0.84807
C         46.46913        26.73350        -0.89680
C         47.70949        28.77943        -0.21196
C         46.42852        29.54271        -0.40305
C         47.71128        31.70737        -0.12272
C         46.41222        30.96183         0.09742
C         47.70729        33.11623         0.04085
C         46.46436        33.84201         0.15239
C         47.73716        35.92400         0.56993
C         46.49161        35.23873         0.45255
C         47.76022        37.31818         1.15525
C         46.50098        38.10947         0.94543
C         47.75937        40.23480         1.04091
C         46.51085        39.51823         1.04583
C         47.74962        41.66149         1.02230
C         46.50931        42.36461         0.92461
C         47.73347        44.50728         0.84196
C         46.50501        43.78658         0.81318
C         47.73691        45.94146         0.65306
C         46.49367        46.62237         0.45596
C         47.71596        48.77348         0.17494
C         46.51443        48.04477         0.30235
C         47.72918        50.20636        -0.10396
C         46.53163        50.93999        -0.23703
C         47.73267        53.00468        -0.77487
C         46.51993        52.32061        -0.57398
C         47.70267        54.43138        -1.05240
C         46.56310        55.11791        -1.32069
C         50.22026        20.35980        -0.98864
C         48.99582        21.03421        -0.86142
C         50.19109        23.17572        -1.24557
C         48.98297        22.45823        -0.98153
C         50.14506        24.61031        -1.39806
C         48.94911        25.29503        -1.24816
C         50.16540        27.49925        -1.00035
C         48.90083        26.80275        -1.43846
C         50.17179        28.87001        -0.71696
C         48.95169        29.58328        -0.49275
C         50.18696        31.69571        -0.16259
C         48.94080        30.98953        -0.27650
C         50.19850        33.11973         0.07923
C         48.93529        33.83912         0.10296
C         50.23547        35.97715         0.19908
C         48.92688        35.24126         0.33023
C         50.20832        37.41428         0.65227
C         49.01585        38.09863         0.86050
C         50.24584        40.22118         1.05776
C         49.00246        39.52049         1.00113
C         50.25433        41.67520         1.16184
C         48.98538        42.39109         1.09327
C         50.19173        44.56673         1.30462
C         48.95466        43.79890         1.05340
C         50.20020        46.04204         1.04122
C         48.93982        46.69266         0.63483
C         50.20817        48.77277         0.09571
C         48.96208        48.07542         0.31505
C         50.20089        50.16064        -0.26185
C         48.96478        50.88684        -0.33109
C         50.21486        52.92149        -0.88957
C         48.96530        52.27972        -0.65020
C         51.40456        21.06098        -1.21079
C         52.69743        23.15566        -1.59697
C         51.41296        22.45338        -1.33265
C         52.68421        24.65983        -1.81318
C         51.36097        25.42367        -1.83855
C         52.64901        27.56358        -1.34254
C         51.44448        26.70557        -0.98958
C         52.65992        28.94718        -0.81230
C         51.43598        29.59303        -0.58555
C         52.65814        31.63970         0.01323
C         51.42238        30.98070        -0.22919
C         52.64437        33.00343         0.65002
C         51.38924        33.77770         0.37057
C         52.69420        35.93846         0.59469
C         51.38490        35.20935         0.84306
C         52.69446        37.34907         0.63850
C         51.45873        38.08910         0.74207
C         52.73554        40.14969         1.25276
C         51.45048        39.48480         1.00242
C         52.74943        41.66913         1.32443
C         51.46218        42.36612         1.18428
C         52.77506        44.53851         0.94538
C         51.51577        43.83201         1.31132
C         52.76031        45.92034         0.61221
C         51.50987        46.72193         0.71697
C         52.64776        48.71154        -0.24080
C         51.45362        48.07798         0.12417
C         52.66378        50.10340        -0.53218
C         51.42433        50.83426        -0.53273
C         51.39549        52.22488        -0.83473
C         55.12690        23.27535        -1.23482
C         53.96631        22.57073        -1.15114
C         55.14356        24.68906        -1.51735
C         53.95677        25.38136        -1.61286
C         55.20280        27.55635        -1.17885
C         53.95553        26.86566        -1.58530
C         55.14920        28.92047        -0.74155
C         53.90080        29.61419        -0.61564
C         55.12870        31.66979         0.06670
C         53.88220        30.97543        -0.16962
C         55.12652        33.07824         0.28898
C         53.90582        33.79369         0.41094
C         55.17193        35.92622         0.10457
C         53.88926        35.19886         0.43782
C         55.17687        37.37125         0.51904
C         53.96024        38.06497         0.65895
C         55.19500        40.18708         0.90239
C         53.98426        39.46159         0.91254
C         55.19630        41.63903         0.91303
C         54.00733        42.36999         1.01750
C         55.20713        44.48349         0.55716
C         53.98291        43.80262         0.83573
C         55.18005        45.86795         0.23283
C         53.93691        46.55514         0.18741
C         55.17696        48.69029        -0.36913
C         53.89653        47.89963        -0.49497
C         55.12067        50.06935        -0.59108
C         53.91155        50.75051        -0.73197
C         57.69344        24.69402        -1.41601
C         56.44126        25.45113        -1.76682
C         57.60253        27.47343        -0.72364
C         56.39675        26.84296        -1.16490
C         57.59207        28.85555        -0.37309
C         56.36369        29.57927        -0.38072
C         57.59085        31.63204         0.29413
C         56.35148        30.96215        -0.01099
C         57.58380        33.01788         0.58415
C         56.38540        33.76798         0.46484
C         57.63922        35.88866         0.70745
C         56.40900        35.18034         0.52972
C         57.65086        37.32460         0.68733
C         56.41095        38.05650         0.64766
C         57.67120        40.18430         0.81808
C         56.42325        39.47526         0.78888
C         57.65934        41.62093         0.80347
C         56.45856        42.32516         0.75773
C         57.64619        44.44611         0.28208
C         56.45488        43.76956         0.55417
C         57.64096        45.85708         0.05313
C         56.41278        46.56835        -0.00869
C         57.66427        48.64952        -0.34843
C         56.42083        47.98418        -0.24143
C         58.79201        25.30797        -0.93024
C         59.99552        27.37051        -0.23274
C         58.80845        26.72523        -0.63076
C         60.00972        28.73020         0.03736
C         58.82322        29.50808        -0.02805
C         60.05580        31.65581         0.36592
C         58.82316        30.91150         0.24319
C         60.07537        32.96909         0.69387
C         58.82368        33.68159         1.13083
C         60.04442        35.89882         1.08337
C         58.84833        35.18098         0.92829
C         60.07324        37.28352         0.99542
C         58.88071        38.02889         0.81082
C         60.13213        40.20294         0.69254
C         58.88713        39.46842         0.78842
C         60.17483        41.55098         0.69962
C         58.95540        42.39842         0.94817
C         60.16674        44.51755         0.26342
C         58.93471        43.66555         0.08305
C         60.12811        45.85798         0.12221
C         58.87786        46.56782        -0.05478
C         58.86558        47.95639        -0.24576
O         26.35451        47.58819         1.88073
O         36.57581        47.52715         1.94864
O         42.94173        54.38047         0.28782
O         53.19257        27.47106        -2.69335
O         45.21438        53.29371        -2.33439
O         50.93639        46.76714         2.07492
O         38.42532        35.28759         2.02682
O         41.40207        51.74071         1.43874
O         43.21761        50.29196        -1.47086
O         26.96465        44.22182         2.03467
O         52.75903        23.73518        -2.95595
O         38.83823        30.39683        -1.86811
O         45.19996        49.79020         1.44689
O         31.54368        47.21644        -1.14910
O         50.85794        44.25211         2.56502
O         43.30270        22.40427        -1.81326
O         42.12483        37.57547         2.47054
O         34.65461        37.76702         2.10900
O         52.80575        40.84615         2.54533
O         43.34701        29.26047        -2.16089
O         40.11727        27.40345         1.32054
H         40.91166        27.80324         1.73190
O         39.21097        26.80600        -2.15829
H         38.44324        26.36256        -2.57475
O         55.22480        35.93997        -1.37937
H         56.04438        36.41518        -1.63484
O         31.58462        43.86463         2.54406
H         30.81647        43.34222         2.86012
O         44.01964        39.50406         2.97267
H         43.29990        38.88069         3.24190
O         23.98734        30.53665         1.15210
H         23.95087        31.37018         1.66631
O         38.91103        47.77512        -1.49472
H         39.10880        48.62634        -1.94169
O         40.16184        22.86039        -1.99364
H         41.05796        22.99258        -2.37545
O         31.29089        39.72940        -1.21920
H         32.04270        39.32076        -1.69655
O         56.49650        25.63186        -3.22131
H         55.67712        26.09741        -3.49585
O         46.34243        30.83730         1.57107
H         47.01333        30.15283         1.82110
O         40.22068        33.62446        -1.98080
H         41.01745        33.13336        -2.36618
O         44.33869        21.61507         1.62488
H         44.30618        20.83521         2.21966
O         24.90896        42.21858        -1.94429
H         24.27278        42.56781        -2.60215
O         50.54506        36.00698        -1.22628
H         49.81166        36.45955        -1.69236
O         47.79885        28.50333         1.27460
H         47.10156        27.84194         1.47982
O         40.32376        40.04437        -0.99186
H         41.11476        40.54043        -1.29332
O         51.66344        26.23677         0.38181
H         51.44308        26.96992         0.99473
O         24.29359        29.89863        -2.42930
H         24.41512        29.07129        -2.93977
O         42.62817        32.31606        -2.30250
O         29.28969        31.03445        -2.22733
H         30.12444        30.56799        -2.44835
O         58.75626        33.49976         2.60137
H         58.69103        32.53504         2.76781
O         30.47695        39.95149         2.32884
H         29.68261        40.28802         2.79353
O         41.49890        35.91798        -1.28154
H         40.99903        35.23748        -1.81423
O         41.80575        18.49179         2.56970
H         41.06079        18.01031         2.98979
O         52.60657        32.76411         2.12883
H         51.87600        32.12926         2.29551
O         59.02685        42.85374         2.33218
H         58.98165        42.06475         2.91167
O         30.06553        35.82131         2.21174
H         30.80846        36.32310         2.61202
O         24.63260        41.83109         1.67386
H         25.27473        41.56365         2.36389
O         43.95360        46.42667        -1.42652
H         43.95804        45.46718        -1.63234
O         51.14398        25.80999        -3.21639
H         51.49653        25.07913        -3.77478
O         48.77569        27.05414        -2.88082
H         49.59326        26.68297        -3.30449
O         53.81660        47.55622        -1.94240
H         53.85899        48.40271        -2.43756
O         36.54837        37.94633        -1.04706
H         37.38982        38.34947        -1.35149
O         47.79970        37.08432         2.61573
H         47.79049        37.96085         3.05687
O         41.57123        46.81807         2.35469
H         40.74191        47.25506         2.64511
O         51.16615        35.17337         2.27665
H         51.79020        34.50211         2.64396
O         58.93813        43.21745        -1.30634
H         58.90806        44.01365        -1.87711
O         32.78920        27.31597        -2.11126
H         32.82060        26.36488        -2.35073
H         22.01940        26.81573        -0.58975
H         21.96492        29.21135        -1.03693
H         21.93522        31.18265        -0.75219
H         21.98104        33.58646        -0.88813
H         21.96871        35.48247        -0.73919
H         21.97942        37.90020        -0.63340
H         21.96728        39.81651        -0.40183
H         22.06519        42.20357        -0.77890
H         22.25651        44.09589        -1.25017
H         22.20644        46.55332        -1.03644
H         25.35318        23.50729         0.14657
H         23.25061        24.73528        -0.21446
H         25.33189        49.95200        -0.15491
H         23.32562        48.65098        -0.64544
H         27.00745        22.59122         0.50824
H         26.98605        50.89279         0.45790
H         29.11622        21.41659         0.73714
H         29.11022        52.08120         0.25080
H         32.87200        19.33326         1.10824
H         30.76608        20.51881         0.95862
H         32.82339        54.11987        -0.57608
H         30.72182        52.94020        -0.30338
H         34.51745        18.40741         1.23789
H         34.47005        54.98749        -0.99125
H         36.62291        17.21798         1.32745
H         36.57910        56.08730        -1.50005
H         40.38195        15.04939         1.06580
H         38.27139        16.27080         1.23124
H         40.09246        57.27807        -3.81116
H         38.04827        56.40967        -2.74980
H         42.83962        15.05456         0.70202
H         42.54614        57.24712        -4.02737
H         44.96301        16.25353         0.40964
H         44.77464        56.33786        -3.38674
H         48.65094        18.31815        -0.58222
H         46.59396        17.13450        -0.07391
H         48.64510        54.99471        -1.01118
H         46.59878        56.20942        -1.45245
H         50.26842        19.26599        -0.91367
H         50.24586        53.98886        -1.14243
H         52.34194        20.49692        -1.30861
H         52.32939        52.76228        -1.04290
H         56.06904        22.78202        -0.95775
H         53.97892        21.54636        -0.75334
H         56.04631        50.65902        -0.64020
H         53.95015        51.83086        -0.91831
H         57.74705        23.63112        -1.69135
H         57.69867        49.73437        -0.51264
H         59.71690        24.73580        -0.76035
H         60.92400        26.78682        -0.15302
H         60.95706        29.20062         0.33271
H         61.00434        31.15205         0.13156
H         61.04148        33.48868         0.75974
H         60.98344        35.36788         1.28953
H         61.03320        37.79889         1.12862
H         61.06826        39.64359         0.55572
H         61.14772        42.05417         0.60456
H         61.13569        44.01839         0.40654
H         61.05352        46.45167         0.17635
H         59.81858        48.50051        -0.31419
