         236
 CSIRO Nanostructure Databank - Neutral Graphene Oxide Data Set
C        -11.08912         0.57842        -0.43954
C         -9.90256         1.38380        -0.16935
C         -8.81374         0.77972         0.69171
C         -7.43804         1.42713         0.48923
C         -6.27536         0.77458         0.76261
C         -5.02233         1.53993         1.16709
C         -3.72183         0.70559         1.05171
C         -2.40666         1.42067         0.89606
C         -1.19432         0.71605         0.39980
C         -0.02867         1.38987         0.22913
C          1.13098         0.71417        -0.47648
C          2.45561         1.43987        -0.43578
C          3.63687         0.77840        -0.39915
C          4.94394         1.40610        -0.70271
C          6.22768         0.71626        -0.34310
C          7.48636         1.50845        -0.28111
C          8.71314         0.75695        -0.05469
C          9.97036         1.48919        -0.13987
C         11.19995         0.70451        -0.17907
C         -9.84340         2.69809        -0.51660
C         -8.71157         3.58957        -0.15361
C         -7.42518         2.90943         0.31364
C         -6.09073         3.52815         0.05928
C         -4.95516         2.87084         0.42457
C         -3.63876         3.52453         0.21955
C         -2.40005         2.88639         0.67187
C         -1.20799         3.58696         0.61279
C          0.07280         2.83500         0.56440
C          1.32768         3.57756         0.20825
C          2.38551         2.92126        -0.68152
C          3.73248         3.58402        -0.44075
C          4.96734         2.88562        -0.92340
C          6.26736         3.62653        -0.85149
C          7.50305         2.87630        -0.49671
C          8.73813         3.63175        -0.29167
C          9.96441         2.86369        -0.19383
C         -8.64075         4.92819        -0.81073
C         -7.99955         5.96601        -0.27484
C         -5.86648         4.84214        -0.67277
C         -4.89927         5.77987         0.04244
C         -3.60229         5.06293         0.06912
C         -2.38244         5.73115         0.49140
C         -1.19624         5.02766         0.55079
C          0.10402         5.79981         0.66594
C          1.30564         5.05555         0.13601
C          2.45900         5.75505        -0.07109
C          3.75514         5.04858        -0.17245
C          4.98727         5.82507        -0.37905
C          6.23467         5.12991        -0.69882
C          7.55063         5.86059        -0.38857
C          8.74342         5.00993        -0.17363
C         -7.67249         7.12943         0.24685
C         -6.34922         7.83601         0.54047
C         -5.02804         7.06774         0.43903
C         -3.79638         7.90995         0.82612
C         -2.44532         7.18715         0.74227
C         -1.18796         7.94735         0.43862
C         -0.03352         7.12797        -0.10447
C          1.26101         7.89949        -0.12964
C          2.46281         7.21540        -0.10164
C          3.72076         7.91492        -0.06012
C          4.96690         7.21126        -0.16293
C          6.22098         7.90857         0.10000
C          7.42165         7.22267         0.14603
C         -6.20860         9.11256        -0.27679
C         -5.02592         9.74811        -0.43661
C         -3.75196         9.21285         0.01931
C         -2.58999         9.91246        -0.18804
C         -1.25221         9.37172         0.02398
C         -0.09844        10.04128        -0.26190
C          1.24831         9.36782        -0.46387
C          2.48367        10.03556         0.09913
C          3.68317         9.34006         0.16691
C          4.94696         9.98840         0.47993
C          6.12780         9.31193         0.46566
C        -11.23727        -0.72043        -0.08309
C        -10.12619        -1.53616         0.47642
C         -8.82621        -0.78107         0.67126
C         -7.48868        -1.46748         0.54455
C         -6.21786        -0.70521         0.74709
C         -4.93514        -1.35586         0.35241
C         -3.76960        -0.72123         0.60510
C         -2.47000        -1.49758         0.67464
C         -1.28177        -0.74678         0.02726
C          0.03119        -1.45433         0.39256
C          1.23655        -0.75075        -0.16470
C          2.41435        -1.41562        -0.21295
C          3.65557        -0.65468        -0.03088
C          4.88433        -1.35176         0.43394
C          6.18986        -0.60500         0.37527
C          7.47490        -1.35341         0.47183
C          8.71945        -0.60844         0.17163
C          9.98330        -1.35077         0.51942
C         11.21287        -0.62693         0.04106
C        -10.22530        -3.04864         0.45039
C         -9.25278        -3.81537        -0.12121
C         -7.34898        -2.71790        -0.22362
C         -6.22339        -3.50074        -0.20129
C         -4.94014        -2.70527        -0.33516
C         -3.69282        -3.51969        -0.18340
C         -2.51179        -2.90497         0.10361
C         -1.24011        -3.60962        -0.02622
C         -0.01062        -2.91953         0.05407
C          1.21050        -3.60219        -0.08343
C          2.44828        -2.88014        -0.57049
C          3.86661        -3.57867        -0.36155
C          4.87022        -2.88364         0.63426
C          6.23230        -3.54855         0.46426
C          7.44254        -2.83345         0.41811
C          8.68953        -3.52974         0.22660
C          9.89750        -2.81366         0.15720
C         -8.81624        -5.18019         0.06375
C         -7.53639        -5.69076        -0.18793
C         -6.27702        -4.93964        -0.43119
C         -5.07968        -5.62711        -0.61596
C         -3.77335        -4.91105        -0.70371
C         -2.46645        -5.69083        -0.75217
C         -1.23092        -4.99333        -0.32983
C         -0.01749        -5.69833        -0.27492
C          1.19391        -5.00284        -0.12874
C          2.46784        -5.68914         0.15023
C          3.73088        -4.99810         0.10095
C          4.95396        -5.73720         0.57698
C          6.23893        -4.95692         0.36857
C          7.46145        -5.67464         0.22159
C          8.65990        -4.95881         0.12892
C         -7.41834        -7.12702        -0.06378
C         -6.26930        -7.83346        -0.34199
C         -5.06287        -7.10095        -0.77385
C         -3.74425        -7.88758        -0.79666
C         -2.46453        -7.17159        -0.66704
C         -1.29669        -7.87586        -0.48401
C         -0.00704        -7.15517        -0.52983
C          1.25937        -7.92079        -0.34942
C          2.47021        -7.21050         0.16427
C          3.74753        -7.91961         0.03950
C          4.99720        -7.09312        -0.17006
C          6.27535        -7.84991         0.08887
C          7.44028        -7.13760         0.19441
C         -6.19784        -9.26858        -0.22225
C         -5.01923        -9.96623        -0.26684
C         -3.74152        -9.31998        -0.42236
C         -2.54208        -9.98575        -0.23406
C         -1.26618        -9.32081        -0.30937
C         -0.05740       -10.01778        -0.15468
C          1.23368        -9.39128        -0.13929
C          2.46147       -10.02535         0.01868
C          3.72581        -9.30016        -0.01499
C          5.01684        -9.98069        -0.01220
C          6.19855        -9.29887         0.06363
O         -5.21761         1.85590         2.56543
H         -4.34356         1.77186         3.01391
O          0.26799        -1.35083         1.82430
H         -0.52224        -1.73329         2.28338
O         10.06609        -1.34450         1.99813
H          9.15823        -1.48523         2.34606
O         -9.63002        -1.20699         1.82076
O         -2.26243        -1.67405         2.10598
H         -2.41176        -0.78855         2.52866
O          4.98564        -6.74060        -1.58323
H          5.09290        -7.56071        -2.10907
O         -1.54339         7.65343         1.81552
O         -8.30794         3.61309         1.24166
O          5.67791         0.62070        -1.69987
O         -1.44904        -0.80330        -1.41569
H         -1.32628        -1.73326        -1.70946
O         -8.42397        -3.10055        -1.01342
O         -3.94626         8.31590         2.21255
H         -3.02994         8.41606         2.57317
O         -9.14419         1.18060         2.04041
H         -8.55110         0.70156         2.65685
O         -6.54779         8.25543         1.91355
H         -5.67636         8.52653         2.29124
O         -4.92511        -2.34353        -1.77060
H         -4.74305        -3.16086        -2.28500
O         -0.39461         6.82405        -1.47634
H          0.38407         6.43866        -1.93039
O          4.84563        -5.99336         1.99411
H          4.66682        -5.12445         2.42675
O          2.21785        -2.85621        -1.96614
O          0.41205         6.06013         2.05264
H          0.68334         5.20553         2.45509
O          2.00611         3.18111        -2.05034
H          1.50075         2.39413        -2.37766
O         -2.85788         0.94005         2.23537
O          1.43289         9.45777        -1.93709
H          2.32167         9.09701        -2.14533
O         -6.09950         4.98749        -1.85856
O          0.75161         0.78258        -1.90516
H         -0.05648         0.21270        -2.01773
O          4.41887        -3.16614         1.97510
H          4.04300        -2.32057         2.33113
O          4.52780        -3.54672        -1.63618
H          3.78478        -3.33436        -2.28656
O          6.84670        -0.69307         1.67024
O         -3.45022         4.17035        -1.07872
O          1.11726         3.09672         1.57545
O          7.00897         5.77290        -1.75916
O         -3.05559        -5.11454        -1.97496
O         -6.79881        -1.48067         1.85509
O          2.29736        -6.51917         1.42097
O         -4.48727        -7.59226        -2.02878
O          0.83932        -7.52108        -1.69455
O          4.02790        -0.72654         1.44418
O          5.61914         3.28333        -2.14517
O          3.91440         4.03308         0.93162
H         12.15691        -1.18954        -0.01472
H         12.13164         1.23017        -0.43894
H         10.91889         3.41168        -0.19492
H          9.69070         5.51531         0.07136
H          8.31838         7.72222         0.54364
H          7.06197         9.84197         0.70408
H          4.93151        11.06033         0.72634
H          2.48060        11.12567         0.25294
H         -0.16089        11.08938        -0.59654
H         -2.65548        10.89867        -0.67634
H         -4.99697        10.70927        -0.97505
H         -7.12796         9.58538        -0.65461
H         -8.51063         7.68731         0.71345
H         -8.97238         4.98920        -1.86342
H        -10.66774         3.14053        -1.09867
H        -11.93265         1.09562        -0.92361
H        -12.18415        -1.23407        -0.30769
H        -10.94354        -3.48717         1.15976
H         -9.56762        -5.89921         0.42923
H         -8.31933        -7.68602         0.23494
H         -7.13647        -9.81094        -0.03375
H         -5.03138       -11.05570        -0.11448
H         -2.55952       -11.06141         0.00078
H         -0.10315       -11.11040        -0.02409
H          2.49763       -11.11881         0.13830
H          5.02501       -11.08043        -0.02587
H          7.14306        -9.86180         0.11925
H          8.40345        -7.66630         0.27189
H          9.60958        -5.49927        -0.00014
H         10.83734        -3.37722         0.04764
