         720
 CSIRO Nanostructure Databank - Neutral Graphene Oxide Data Set
C         22.97497        27.36955         0.00983
C         23.01406        28.74057         0.24602
C         23.10936        31.55597         1.08299
C         23.05664        32.89825         1.15529
C         23.03956        35.87091         1.20116
C         23.02411        37.24203         1.37262
C         23.02839        40.17328         1.58757
C         23.01584        41.53461         1.59526
C         23.08165        44.47270         1.89508
C         23.05603        45.82452         1.86239
C         25.31710        24.58537        -0.77225
C         24.14132        25.26882        -0.55116
C         25.31324        27.46044        -0.88253
C         24.11303        26.68107        -0.42722
C         25.39858        28.86353        -0.33469
C         24.22484        29.48846         0.14234
C         25.48782        31.56823         0.46522
C         24.29054        30.86948         0.55471
C         25.51300        32.96641         1.03927
C         24.23388        33.70838         0.65415
C         25.47375        35.84216         1.18366
C         24.25462        35.15785         1.09334
C         25.47255        37.27295         1.31087
C         24.23305        37.97866         1.38806
C         25.45089        40.09938         1.19184
C         24.24657        39.41574         1.40350
C         25.40027        41.54560         0.88231
C         24.19653        42.31230         1.30827
C         25.43704        44.45891         1.06541
C         24.22547        43.68749         1.45203
C         25.51788        45.83638         1.68665
C         24.23239        46.62306         1.35799
C         25.52188        48.64405         2.01790
C         24.33141        48.01469         1.94176
C         27.86781        23.08957        -0.71762
C         27.79521        24.52322        -0.80977
C         26.59626        25.25192        -0.78777
C         27.78511        27.43968        -0.82835
C         26.60562        26.70049        -0.73786
C         27.81076        28.86621        -0.80349
C         26.63134        29.57269        -0.43370
C         27.90244        31.68630        -0.04138
C         26.69185        30.96343        -0.02881
C         27.95775        33.08218         0.36701
C         26.75924        33.74739         0.72611
C         27.96334        35.83742         1.01810
C         26.74056        35.13282         0.97627
C         27.95079        37.23717         1.59277
C         26.69301        38.00095         1.29668
C         27.95993        40.12997         1.07302
C         26.70390        39.40578         1.16599
C         27.98048        41.53527         0.83083
C         26.69888        42.25535         0.57983
C         27.99973        44.52173         0.46787
C         26.68153        43.76377         0.59842
C         27.97024        45.92356         1.06873
C         26.78002        46.60664         1.37381
C         27.99474        48.73113         1.54749
C         26.78152        47.99817         1.64371
C         28.05080        50.19186         1.58821
C         30.26915        23.07607        -1.34879
C         29.03480        22.40476        -0.88571
C         30.30047        24.56627        -1.29018
C         29.10556        25.26861        -0.67144
C         30.34661        27.44497        -1.22685
C         29.02190        26.70158        -1.13893
C         30.36372        28.86130        -0.94435
C         29.08962        29.58959        -0.97348
C         30.44428        31.68278        -0.24983
C         29.12562        31.07194        -0.57923
C         30.47045        33.19776        -0.19196
C         29.16941        33.82082         0.31238
C         30.44565        35.94152         0.79299
C         29.16840        35.17150         0.72882
C         30.49196        37.24991         1.56873
C         29.21068        38.02870         1.38019
C         30.47102        40.14897         1.60700
C         29.19758        39.39184         1.26866
C         30.46465        41.51570         0.91972
C         29.19150        42.26685         0.82088
C         30.43526        44.40178         0.87486
C         29.23658        43.70537         0.81639
C         30.45199        45.85888         1.12275
C         29.18503        46.63526         1.10393
C         30.45609        48.79896         1.17980
C         29.19803        48.02168         1.35063
C         30.54212        50.19816         1.75752
C         29.20658        50.89102         1.60225
C         32.70915        20.45281        -2.44928
C         31.55388        21.04239        -2.07786
C         32.80947        23.14795        -1.53321
C         31.57484        22.31383        -1.25979
C         32.83542        24.53156        -1.39416
C         31.60249        25.29467        -1.24310
C         32.82334        27.48518        -1.47214
C         31.59973        26.66333        -1.16835
C         32.88122        28.81865        -0.74882
C         31.58135        29.43988        -0.26539
C         32.90484        31.59386         0.04423
C         31.60579        30.96101        -0.22618
C         32.95180        32.99272         0.42109
C         31.63319        33.68576         0.68070
C         32.99913        35.83145         1.10558
C         31.73384        35.19837         0.66302
C         32.99783        37.27957         1.24686
C         31.77104        38.00252         1.28213
C         32.99668        40.10961         1.32116
C         31.77060        39.40165         1.31481
C         32.93781        41.59451         1.61433
C         31.76344        42.23484         0.88233
C         33.04574        44.45440         0.89918
C         31.74560        43.72433         0.73880
C         33.06040        45.92399         1.05198
C         31.75481        46.59878         1.17784
C         33.02377        48.80347         1.04220
C         31.74072        48.07457         0.98933
C         32.97776        50.24431         0.96326
C         31.77518        50.94910         1.26084
C         32.97096        53.03112         0.90232
C         31.80310        52.34582         1.24755
C         35.25781        18.84301        -1.82868
C         35.22021        20.21204        -2.47626
C         33.99220        21.05646        -2.13001
C         35.29199        23.04259        -1.25749
C         34.02633        22.38562        -1.75260
C         35.34768        24.55495        -1.46378
C         34.08988        25.29626        -1.43009
C         35.32548        27.47216        -1.44967
C         34.08439        26.67690        -1.37346
C         35.35773        28.83370        -0.86375
C         34.08428        29.47213        -0.53808
C         35.34761        31.41743         0.46005
C         34.07749        30.85021        -0.05485
C         35.38455        32.86020         0.89743
C         34.12837        33.64607         0.77136
C         35.45293        35.72512         1.38536
C         34.15417        35.06476         1.10929
C         35.48107        37.26597         1.48141
C         34.21758        37.99548         1.28812
C         35.50058        40.12534         1.36886
C         34.22895        39.41646         1.28646
C         35.49537        41.57305         1.61923
C         34.24309        42.33801         1.40294
C         35.53075        44.47339         1.38185
C         34.27311        43.68532         1.22507
C         35.51258        45.96538         1.31454
C         34.21758        46.65193         1.07565
C         35.43752        48.76692         0.54932
C         34.21573        48.10538         0.97862
C         35.37241        50.18342         0.22129
C         34.16420        50.93515         0.59078
C         35.30994        53.17214         0.06951
C         34.14242        52.34450         0.56958
C         35.94694        54.05176         1.13423
C         37.72645        18.76952        -1.90344
C         36.41516        18.16197        -1.67665
C         37.77635        20.13068        -2.09724
C         36.53613        20.94249        -2.25524
C         37.80364        22.98734        -1.22974
C         36.54541        22.36860        -1.80787
C         37.86966        24.48026        -1.63299
C         36.54900        25.20934        -1.48641
C         37.86343        27.37124        -1.15336
C         36.62128        26.68432        -1.55531
C         37.82348        28.73036        -0.81222
C         36.59691        29.42753        -0.58079
C         38.00441        31.40303         0.53660
C         36.64448        30.68255         0.23917
C         37.96450        32.92298         0.47579
C         36.73994        33.60146         0.94804
C         37.94749        35.80780         1.03525
C         36.69785        35.05698         1.01236
C         37.90317        37.28294         0.97234
C         36.74913        37.98643         1.20260
C         37.96281        40.17558         1.11570
C         36.72488        39.45263         1.24421
C         38.01052        41.56812         1.05942
C         36.82735        42.34325         1.42607
C         37.95852        44.46110         0.74474
C         36.80993        43.78002         1.14830
C         37.95854        45.90443         0.56282
C         36.81608        46.74229         1.11746
C         37.72776        48.59815        -0.38866
C         36.60639        48.04242         0.37435
C         37.66380        50.09077        -0.78752
C         36.46271        50.82902        -0.33081
C         37.73217        52.93641        -0.70859
C         36.37927        52.29316        -0.66670
C         37.77947        54.39955        -0.44100
C         37.07002        54.72462         0.83326
C         40.16674        15.83871        -1.25960
C         39.02954        16.48446        -1.59633
C         40.29661        18.66919        -1.74442
C         38.98855        17.94624        -1.88479
C         40.24474        20.13911        -1.54937
C         39.05559        20.87985        -2.05400
C         40.35520        23.03352        -1.37766
C         39.07682        22.33732        -1.71880
C         40.33990        24.45782        -1.22877
C         39.03807        25.15375        -0.89311
C         40.32689        27.28946        -1.14110
C         39.08306        26.63719        -1.10862
C         40.30368        28.79112        -1.16874
C         39.13585        29.32158        -0.32749
C         40.29281        31.61619        -0.74476
C         39.10722        30.81665        -0.28300
C         40.35993        33.01361        -0.18555
C         39.13752        33.63386         0.26672
C         40.43474        35.80890         0.21947
C         39.23207        35.06349         0.65606
C         40.38911        37.28469         0.20261
C         39.13594        38.00924         0.57913
C         40.42415        40.15765         0.53293
C         39.25985        39.40929         1.13365
C         40.39688        41.54043         0.43425
C         39.19594        42.29766         0.68503
C         40.37817        44.43087         0.18860
C         39.17341        43.70179         0.51764
C         40.35046        45.84555         0.03258
C         39.10460        46.57768         0.14816
C         40.20347        48.68937        -0.63445
C         39.06658        47.98485        -0.26148
C         40.16842        50.06265        -1.17087
C         38.94100        50.78433        -1.12684
C         39.73499        53.04587        -1.99235
C         38.82592        52.23758        -1.23496
C         39.86752        54.42625        -1.85543
C         38.93352        55.19038        -0.99507
C         40.55624        57.04593        -0.97874
C         39.41917        56.48954        -0.48826
C         42.73104        15.84064        -0.76590
C         41.42750        16.54114        -0.88281
C         42.77979        18.76128        -1.05469
C         41.48437        18.01633        -1.10047
C         42.77655        20.12562        -1.08802
C         41.50759        20.87740        -1.24306
C         42.88831        22.97045        -1.69864
C         41.54337        22.33257        -1.44582
C         42.76337        24.48865        -1.71309
C         41.53778        25.17511        -1.37675
C         42.72958        27.43067        -1.81961
C         41.52994        26.60674        -1.36658
C         42.84450        28.71082        -1.05326
C         41.61231        29.38541        -0.68015
C         42.87808        31.62113        -0.49375
C         41.60860        30.87330        -0.42980
C         42.85235        33.00164        -0.46779
C         41.57423        33.69781        -0.24728
C         42.81146        35.92113        -0.56465
C         41.58923        35.14273        -0.10207
C         42.90936        37.31354         0.04273
C         41.67830        38.01934         0.25852
C         42.90804        40.13561         0.47578
C         41.63826        39.40821         0.33749
C         42.91996        41.55149         0.03242
C         41.60198        42.27019        -0.00273
C         42.82458        44.44227        -0.03042
C         41.60982        43.74124         0.06363
C         42.77085        45.85361        -0.14661
C         41.55467        46.55369        -0.18295
C         42.74317        48.70946        -0.77550
C         41.52160        48.07798        -0.16947
C         42.71301        49.96265        -1.31717
C         41.45467        50.65047        -1.59683
C         42.78201        52.58627        -2.52595
C         41.58525        51.82490        -2.36992
C         42.80760        53.93947        -2.91848
C         40.95872        55.12527        -2.43487
C         42.64771        56.92045        -2.36392
C         41.38918        56.37235        -1.96411
C         43.90016        16.50746        -0.68389
C         45.25035        18.73727        -0.28682
C         44.02996        17.98382        -0.80504
C         45.10156        20.20982        -0.00664
C         43.88535        20.92460        -0.49518
C         45.31769        22.99773        -0.68696
C         43.88970        22.45748        -0.61995
C         45.64478        24.21107        -1.28003
C         43.87694        25.24838        -1.99089
C         45.27367        27.23893        -1.47021
C         44.03717        26.65387        -1.75713
C         45.31243        28.74256        -1.53042
C         44.01722        29.57027        -1.43606
C         45.40564        31.56025        -0.65511
C         44.13699        30.76854        -0.44312
C         45.38279        33.01335        -0.41367
C         44.09609        33.76362        -0.47182
C         45.33245        35.91227        -0.54157
C         44.10757        35.14830        -0.44757
C         45.35983        37.29410        -0.35349
C         44.14762        37.95695         0.10815
C         45.51532        40.14585         0.51394
C         44.20506        39.36856         0.53515
C         45.38961        41.61365         0.08884
C         44.19182        42.30018         0.02806
C         45.30867        44.46922        -0.06811
C         44.13095        43.75478        -0.06049
C         45.29250        45.94619         0.22029
C         44.05306        46.55402        -0.38958
C         45.29671        48.75722        -0.61355
C         44.03315        47.99231        -0.71191
C         45.28592        50.02257        -1.13246
C         44.03083        50.54452        -1.73311
C         45.29661        52.77951        -2.16125
C         44.08118        51.94132        -2.28390
C         45.21599        54.17427        -2.41565
C         43.92832        54.78511        -2.74949
C         43.77311        56.20868        -2.75305
C         47.38207        18.85133         0.96792
C         46.38365        18.10786         0.43423
C         47.44724        20.30949         0.85782
C         46.32547        20.98117         0.33217
C         47.49097        23.13563         0.46180
C         46.34329        22.38650         0.12616
C         47.47899        24.64092         0.34572
C         46.56278        25.15390        -0.74791
C         47.70628        27.29873        -0.70790
C         46.48325        26.53814        -1.00747
C         47.78803        28.65223        -0.97615
C         46.58900        29.45897        -1.28278
C         47.84311        31.63071        -1.05010
C         46.59018        30.91674        -0.93241
C         47.90272        33.02579        -1.05876
C         46.67151        33.76502        -0.69102
C         47.82457        35.98040        -1.27192
C         46.55726        35.21603        -1.00777
C         47.81783        37.43222        -0.95509
C         46.59581        38.05988        -0.54455
C         47.78674        40.19639        -0.41469
C         46.61998        39.43891        -0.22634
C         47.81762        41.63338        -0.17084
C         46.63337        42.32863        -0.05069
C         47.83732        44.58827        -0.07519
C         46.59816        43.79834        -0.42400
C         47.83547        45.97062        -0.04778
C         46.56953        46.69969        -0.09568
C         47.72857        48.93214         0.02600
C         46.52831        48.06159        -0.27179
C         47.82560        50.13693        -0.90743
C         46.55669        50.73614        -1.43005
C         47.67480        52.97418        -1.64386
C         46.51648        52.18462        -1.76884
C         47.59031        54.35140        -1.90848
C         46.39245        54.94284        -2.28446
C         49.81575        20.43541         1.69764
C         48.59413        21.06546         1.23109
C         49.76654        23.26532         1.37946
C         48.59864        22.49137         1.05637
C         49.93967        24.57563         0.87027
C         48.85599        25.23732         0.24208
C         50.13268        27.25164        -0.16352
C         48.91724        26.58361        -0.25507
C         50.29287        28.65845        -0.57809
C         49.07214        29.36353        -1.08273
C         50.40344        31.59912        -1.16779
C         49.08314        30.86317        -1.27112
C         50.37831        33.08493        -1.06996
C         49.14066        33.74547        -1.22525
C         50.43351        35.97325        -1.40895
C         49.12764        35.22015        -1.42982
C         50.33583        37.38832        -0.82512
C         49.02630        38.16383        -1.06270
C         50.00261        40.48641        -1.32238
C         48.95383        39.57631        -0.91446
C         50.26102        41.72447        -0.81496
C         49.11874        42.36222        -0.12595
C         50.36250        44.60505        -0.41661
C         49.12294        43.86516        -0.06853
C         50.31655        46.04175        -0.28266
C         49.09423        46.70105        -0.05281
C         50.34208        48.94574        -0.12220
C         49.05936        48.16882         0.11646
C         50.28326        50.36994        -0.58919
C         49.04973        50.96742        -0.83076
C         50.17725        52.86967        -1.94203
C         48.99217        52.44866        -1.11239
C         50.85158        21.16123         2.17360
C         52.08940        23.32900         2.44886
C         50.73100        22.65268         2.35625
C         52.43260        24.57733         1.67421
C         51.32707        25.14550         0.77138
C         52.58618        27.36925         0.15329
C         51.37652        26.52691         0.11967
C         52.67783        28.71355         0.19137
C         51.39487        29.51794         0.02493
C         52.77243        31.55367        -0.14618
C         51.67019        30.77886        -0.84476
C         52.78510        33.08879        -0.39027
C         51.61583        33.78588        -0.96005
C         52.89890        35.89603        -0.93532
C         51.69658        35.21035        -1.11102
C         52.94784        37.36639        -1.26843
C         51.70187        38.19623        -0.86516
C         52.97181        40.26697        -1.39666
C         51.89574        39.47031        -1.68062
C         52.82689        41.70692        -0.98319
C         51.51628        42.49800        -1.24551
C         52.79613        44.65252        -0.62701
C         51.54795        43.92653        -0.69023
C         52.79303        46.03559        -0.55389
C         51.55628        46.78082        -0.45087
C         52.81395        48.93902        -0.41884
C         51.56245        48.17589        -0.40335
C         52.79281        50.43641        -0.71727
C         51.48392        51.04683        -0.98426
C         51.36616        52.22123        -1.79819
C         53.65656        23.95719         4.26248
C         52.76552        23.08624         3.74096
C         54.04248        25.16469         3.56369
C         53.50188        25.44558         2.29069
C         54.67516        27.65230         2.22459
C         54.01100        26.57462         1.60939
C         54.84576        28.96176         1.59599
C         54.08404        29.33823         0.26997
C         55.22078        31.58583         0.45635
C         53.97782        30.84120         0.19084
C         55.36179        32.96828        -0.11618
C         54.13392        33.68325        -0.62839
C         55.50742        35.87697        -0.79642
C         54.18302        35.15687        -0.95518
C         55.51685        37.37804        -0.94151
C         54.20445        38.11195        -0.73180
C         55.44666        40.29966        -0.69214
C         54.30510        39.53558        -1.31484
C         55.41372        41.78588        -0.91033
C         54.06918        42.41916        -0.54099
C         55.37030        44.60015        -0.56108
C         54.06969        43.91660        -0.21259
C         55.31630        46.03688        -0.98757
C         54.10710        46.76878        -0.35759
C         55.34619        49.01218        -0.50890
C         54.06366        48.21753        -0.87799
C         55.23717        50.36183        -1.19085
C         54.06067        51.01212        -1.24568
C         55.67564        25.78384         5.35128
C         54.99011        26.08253         4.13799
C         56.10181        28.27859         4.14118
C         55.23384        27.34837         3.51663
C         56.25043        29.61586         3.55081
C         55.69186        29.89097         2.20477
C         57.07765        31.97834         2.09298
C         56.06023        31.15560         1.59455
C         57.48636        33.21906         1.37543
C         56.58049        33.75897         0.29142
C         57.72233        36.02437         0.54615
C         56.66298        35.20972        -0.08904
C         57.71231        37.54066         0.44601
C         56.69374        38.16088        -0.47698
C         57.83028        40.35690        -0.02982
C         56.59159        39.64764        -0.33289
C         57.82092        41.79673        -0.10224
C         56.61627        42.49286        -0.35420
C         57.84127        44.62894        -0.35729
C         56.59174        43.91970        -0.41647
C         57.84968        46.13707        -0.29243
C         56.58144        46.83024        -0.73888
C         57.89704        48.88489        -0.65343
C         56.60729        48.19561        -0.75279
C         56.57384        26.66748         5.90552
C         57.87830        28.78067         5.78616
C         56.80983        27.93398         5.30688
C         58.20241        29.94556         5.17127
C         57.34756        30.51518         4.11919
C         58.81932        32.49152         3.74537
C         57.80562        31.66284         3.29674
C         59.13953        33.72617         3.11625
C         58.46389        34.15293         1.99517
C         59.75935        36.34455         1.84523
C         58.63513        35.48919         1.43139
C         60.02293        37.53988         1.27568
C         59.10801        38.13397         0.21840
C         60.21942        40.41134         0.38727
C         59.02930        39.66702         0.23452
C         60.23306        41.79627         0.28813
C         59.04934        42.52711         0.04201
C         60.27778        44.74692        -0.09369
C         59.04069        43.96102        -0.13542
C         60.31850        46.03833        -0.47796
C         59.07495        46.72770        -0.98832
C         59.06749        48.22884        -0.78896
O         50.04792        28.75983        -2.01515
O         39.46534        37.84052        -0.83664
O         31.16480        35.93573        -0.47293
O         52.90493        49.90709         0.66505
O         46.25889        33.47501         0.68452
O         45.13632        18.38382        -1.70046
O         55.94131        30.68723         4.51749
O         41.17716        17.48017         0.23578
O         45.00232        24.57403        -2.46954
O         36.61585        22.08428        -3.22506
O         41.65105        54.51119        -3.48207
O         51.63071        25.29265        -0.64629
O         31.29114        41.52133        -0.29882
O         49.84658        48.67841         1.25065
O         35.23347        22.78863         0.14129
O         39.19646        21.87952        -3.11123
O         49.35457        43.03133         1.16020
O         56.55043        37.79467        -1.88556
O         52.46754        32.54510         0.93518
O         38.90596        35.29542         2.06521
O         30.97126        48.58753        -0.17120
O         40.45382        52.38065        -2.98249
O         39.88414        18.23131        -3.05706
O         35.51617        36.43373         2.68062
O         36.02018        27.31006        -2.73757
O         54.24548        34.13147        -2.00735
O         44.17237        46.94909        -1.78937
O         29.53690        27.03133        -2.43612
O         36.29521        41.99868         2.75700
O         43.50045        39.76540         1.77098
O         40.53698        20.50639        -0.16896
O         32.50508        44.14630        -0.45718
O         37.56476        55.27217        -1.59372
O         52.90975        23.25608         1.24869
O         35.89699        30.50492         1.48800
O         53.27672        41.69844         0.44834
O         55.79369        31.81873        -0.90063
O         42.20025        41.71769        -1.24075
O         25.88271        41.73656        -0.51095
O         50.81321        40.01567        -2.36056
O         56.59331        35.30553        -1.56235
O         35.51057        45.29133         2.62982
O         49.81976        35.67565        -2.66987
O         31.12026        46.15376         2.43617
O         44.00621        20.52190         0.93522
O         46.11764        29.21159        -2.67961
O         49.83300        31.22847        -2.47100
O         25.72992        44.35097        -0.35838
O         44.21304        50.75905        -3.17269
O         29.02190        30.67777        -1.99136
O         36.07714        33.00470         2.16350
O         57.79275        33.03651        -0.05453
O         41.55628        29.94674         0.70361
O         34.79073        54.10038        -0.85928
O         47.43722        49.91177        -2.30445
O         30.43946        40.32267         3.00953
O         46.91036        35.60657        -2.36941
O         37.37173        49.01186        -1.74030
O         53.77465        26.62630         0.22605
O         30.06813        23.88362        -2.55957
O         37.79379        22.78521         0.18104
H         36.84309        22.87377         0.50079
O         57.25730        38.00105         1.75430
H         57.93563        37.75140         2.41843
O         24.09119        46.76091        -0.07442
H         24.90698        47.17882        -0.42115
O         45.11803        46.08176         1.66737
H         45.92901        45.74973         2.10728
O         27.89334        37.03632         3.05527
H         28.80381        36.76341         3.33967
O         52.26195        30.35943        -2.07617
H         51.52713        30.09268        -2.67995
O         50.15263        37.01362         0.59656
H         49.65337        37.72798         1.04949
O         51.81083        38.73477         0.47663
H         51.65600        37.98937         1.10331
O         49.15552        53.12598         0.19331
H         50.01016        52.82621         0.57168
O         55.44282        49.25587         0.91253
H         54.56622        49.59513         1.22094
O         53.91274        48.24492        -2.31378
H         54.42871        47.50054        -2.71225
O         25.48685        32.83422         2.49311
H         26.33256        32.42927         2.77768
O         43.40983        22.99853         0.62863
H         43.60267        22.32928         1.32892
O         38.21895        24.54331        -3.03210
H         37.72726        23.83979        -3.51432
O         54.02694        44.00390         1.25844
H         53.48052        43.23773         1.56294
O         39.59156        39.21179         2.54610
H         39.47086        40.06370         3.01607
O         29.37084        25.35786         0.76241
H         29.40114        24.44725         1.12614
O         54.88183        28.87130        -0.83016
H         54.84210        27.88799        -0.83046
O         40.12553        29.16953        -2.55931
H         40.82428        28.68062        -3.07488
O         39.30057        28.78276         1.02078
H         39.03294        29.48930         1.66347
O         50.11770        22.86992         3.68002
H         49.29957        22.32965         3.71658
O         51.45596        42.68707        -2.68225
H         51.29297        41.80299        -3.08714
O         42.43467        27.76902        -3.23422
H         42.99149        28.56590        -3.44273
O         40.23995        31.80860        -2.19182
H         40.14742        30.91282        -2.61372
O         31.26923        33.31480         2.04312
H         31.98567        33.60527         2.64690
O         43.35957        22.46507        -2.96652
H         42.83628        22.87719        -3.68522
O         32.68613        41.72884         3.03487
H         31.85214        41.19598         3.24983
O         43.75321        30.10790        -2.76745
H         44.63453        30.14257        -3.22231
O         37.28355        47.13780         2.44634
H         36.91958        46.46667         3.07433
O         58.95408        46.45138        -2.41384
H         59.74421        46.82011        -2.86078
O         46.61828        43.76949        -1.90869
H         45.71551        43.54459        -2.22201
O         55.50153        41.98752        -2.37866
H         56.42667        41.79678        -2.64684
O         50.88916        29.94782         1.30982
H         51.48286        30.64097         1.67379
O         57.98437        46.45467         1.12758
H         57.09590        46.67077         1.48386
O         30.74314        49.99493         3.19253
H         30.79161        50.87574         3.61932
O         47.43687        49.48401         1.33745
H         48.28455        49.47013         1.84592
O         36.06059        52.39912        -2.07911
H         35.45876        53.21031        -2.11622
O         59.60678        37.73347        -1.07514
H         58.85758        37.72704        -1.71048
O         41.61042        48.43809         1.25968
H         40.85567        48.01180         1.72092
O         30.57371        36.89100         2.99166
H         30.72184        37.73338         3.48109
O         38.81046        25.03721         0.53739
H         39.53437        25.50299         1.00637
O         32.68175        27.86773        -2.88683
H         32.58914        27.04649        -3.41571
O         52.94356        37.43154        -2.71225
H         53.78733        37.06867        -3.05801
O         46.00136        40.19851         1.88939
H         45.20392        40.27360         2.46444
O         54.17883        38.16866         0.71232
H         53.61339        38.92825         0.98576
O         44.24628        30.20851         0.89011
H         43.32867        29.96858         1.18172
O         54.67222        39.38009        -2.71864
H         54.83638        40.28844        -3.06674
O         54.34382        46.81965         1.06434
H         54.21379        45.90734         1.42346
O         28.18928        44.75965        -0.95897
H         27.29228        44.83142        -1.36118
O         46.89480        25.15574         1.60272
H         47.44379        24.81672         2.34159
O         42.62031        36.13859        -1.99934
H         41.78262        36.63448        -2.12371
O         55.13855        45.95214        -2.45025
H         55.98542        45.63369        -2.83069
O         24.17875        33.73108        -0.79853
H         23.37425        34.22107        -1.06758
O         38.29997        31.11795         1.94537
H         37.45974        31.29515         2.43836
O         35.11651        19.95359        -3.90639
H         35.45992        20.75598        -4.36021
O         25.12470        27.61798        -2.34930
H         25.91065        28.09668        -2.69229
O         25.54937        45.59897         3.12030
H         25.60374        46.47002         3.56796
O         30.70325        33.63199        -1.54775
H         30.00836        33.24469        -2.12048
O         31.46004        29.01426         1.15168
H         32.23284        29.37859         1.63593
O         31.67615        21.92884         0.15164
H         32.62041        21.72633         0.33636
H         22.05119        26.80915         0.21668
H         22.09583        29.23721         0.58480
H         22.24499        30.96172         1.41076
H         22.14785        33.39261         1.52758
H         22.08231        35.33627         1.12469
H         22.05666        37.75632         1.43560
H         22.09114        39.63833         1.78843
H         22.07048        42.05412         1.80014
H         22.18942        43.93936         2.25351
H         22.15203        46.36429         2.18333
H         25.28399        23.49147        -0.86254
H         23.20411        24.70737        -0.41919
H         25.56254        49.68055         2.38352
H         23.40603        48.54681         2.21073
H         26.95716        22.52337        -0.47270
H         27.09995        50.74358         1.54712
H         29.06116        21.31728        -0.72694
H         29.16186        51.99035         1.60281
H         32.70610        19.50189        -3.00144
H         30.58482        20.56935        -2.29355
H         32.97101        54.12826         0.85061
H         30.90170        52.92426         1.49468
H         34.30034        18.34452        -1.61597
H         35.38828        54.26699         2.05838
H         36.38811        17.12703        -1.30373
H         37.50953        55.46285         1.52164
H         40.15417        14.74231        -1.15811
H         38.11639        15.89769        -1.77916
H         40.88691        58.02986        -0.61492
H         38.79491        57.03775         0.23098
H         42.72722        14.74057        -0.72993
H         42.78982        57.99873        -2.18680
H         44.83784        15.93779        -0.60319
H         44.68810        56.80904        -2.86483
H         48.20501        18.33100         1.47819
H         46.42568        17.01085         0.49967
H         48.48208        54.98050        -1.78333
H         46.37449        56.02399        -2.47151
H         49.90966        19.34246         1.62975
H         50.10968        53.76939        -2.56948
H         51.77394        20.66451         2.50735
H         52.25166        52.59539        -2.33025
H         54.08587        23.74747         5.25056
H         52.44932        22.20915         4.32374
H         56.14190        50.84711        -1.58828
H         54.01858        52.00816        -1.71056
H         55.51936        24.81632         5.84499
H         57.88734        49.97620        -0.51637
H         57.12189        26.39668         6.81904
H         58.50736        28.39882         6.60371
H         59.11835        30.47620         5.46620
H         59.35617        32.24389         4.67069
H         59.89799        34.36109         3.59318
H         60.47223        35.94207         2.57932
H         60.94448        38.07426         1.55117
H         61.16784        39.88305         0.55670
H         61.19256        42.31987         0.39257
H         61.20403        44.25648         0.23819
H         61.27181        46.59005        -0.47296
H         60.02319        48.77619        -0.78784
