         404
 CSIRO Nanostructure Databank - Neutral Graphene Oxide Data Set
C          4.33557         2.47372        -5.75806
C          4.07069         3.82419        -5.45188
C          5.28790         1.76587        -5.05442
C          4.76684         4.49065        -4.43846
C          3.38867         6.57425        -4.64912
C          3.10325         7.88648        -4.30244
C          4.49131         5.88321        -4.10079
C          3.93755         8.60549        -3.41639
C          2.63959        10.72784        -3.66382
C          2.37604        12.05384        -3.31742
C          3.67965        10.00166        -3.06165
C          3.12901        12.71660        -2.33740
C          1.91418        14.98144        -2.71414
C          1.84173        16.31666        -2.47038
C          2.79521        14.10678        -1.91811
C          2.76368        17.01155        -1.59697
C          2.75132        18.42639        -1.50961
C          6.02769         2.39558        -4.00989
C          5.77498         3.77946        -3.70526
C          6.99573         1.68248        -3.28342
C          6.51673         4.41818        -2.68078
C          5.32918         6.57113        -3.18000
C          5.06231         7.93319        -2.88231
C          6.35023         5.83824        -2.44433
C          6.00583         8.69181        -2.05098
C          4.48874        10.66670        -2.08117
C          4.20005        12.02118        -1.71347
C          5.62825        10.00814        -1.52868
C          5.06694        12.68185        -0.76455
C          3.78209        14.82030        -1.00034
C          3.80951        16.29667        -0.96103
C          4.95539        14.07354        -0.52291
C          4.88672        16.98339        -0.36807
C          3.78743        19.10426        -0.89588
C          4.90832        18.40520        -0.36690
C          7.71788         2.29169        -2.23262
C          7.47604         3.67885        -1.92341
C          8.65513         1.56228        -1.46885
C          8.17324         4.27174        -0.83851
C          7.08305         6.45492        -1.43708
C          7.07507         7.90592        -1.28545
C          7.84234         5.65979        -0.45576
C          7.75910         8.55564        -0.15198
C          6.44918        10.62539        -0.55350
C          6.14039        11.96363        -0.16360
C          7.56600         9.94322         0.05683
C          6.88770        12.57622         0.88766
C          5.88753        14.75181         0.30366
C          6.07805        16.22636         0.10351
C          6.68504        13.96546         1.13337
C          7.30539        17.00873         0.52487
C          6.05899        19.12535         0.08438
C          7.24088        18.49916         0.48174
C          9.36613         2.15429        -0.40770
C          9.12554         3.54796        -0.09562
C         10.35092         1.41024         0.30059
C          9.82642         4.14731         1.01107
C          8.65660         6.37198         0.61754
C          8.69664         7.85113         0.62134
C          9.70910         5.58783         1.35107
C          9.74718         8.58665         1.27322
C          8.41966        10.61501         1.00559
C          7.95476        11.86231         1.49108
C          9.64652        10.00075         1.42642
C          9.76313        13.01632         2.23648
C          8.54009        15.13667         1.79512
C          8.49984        16.44614         1.22229
C          9.71306        14.42210         1.96223
C          9.69278        17.18827         1.19703
C          8.42607        19.24017         0.71028
C          9.67072        18.61479         0.95405
C         11.07963         2.00271         1.34351
C         10.65668         3.31023         1.75107
C         12.28460         1.42009         1.87344
C         12.36622         4.41051         2.37607
C         10.94776         6.44564         1.90456
C         10.93890         7.88240         1.64475
C         12.27646         5.80236         2.04263
C         12.20122         8.62193         1.54396
C         10.81497        10.72496         2.14333
C         10.88396        12.24371         2.01740
C         12.15268        10.12933         1.69223
C         12.16620        12.95313         2.01588
C         10.96500        15.03865         1.41028
C         10.94228        16.54342         1.51275
C         12.18155        14.32874         1.92657
C         12.10566        17.27456         1.61841
C         10.89668        19.32197         0.98141
C         12.11478        18.68334         1.29160
C         13.44330         2.15716         2.21695
C         13.47135         3.61340         2.16549
C         14.69575         1.49931         2.34094
C         14.72724         4.27669         1.78919
C         13.45984         6.51203         1.82392
C         13.49348         7.93907         1.73832
C         14.73251         5.78731         1.68243
C         14.69631         8.64469         1.83696
C         13.43042        10.81360         1.99576
C         13.42725        12.21846         2.14981
C         14.66768        10.10109         1.95539
C         14.64765        12.92415         2.25217
C         13.35275        15.12589         2.34927
C         13.32866        16.62270         2.16718
C         14.64899        14.38419         2.50003
C         14.61663        17.39202         2.09409
C         13.36636        19.34827         1.16712
C         14.59092        18.71782         1.43675
C         15.93370         2.19685         2.34339
C         15.98418         3.60204         2.11157
C         17.17487         1.51299         2.47121
C         17.19209         4.32884         2.11378
C         15.99629         6.50228         1.90353
C         15.96551         7.92017         1.93543
C         17.20860         5.78146         2.02029
C         17.19789         8.60883         1.97105
C         15.88160        10.81572         2.05832
C         15.89398        12.24002         2.18927
C         17.14745        10.07606         1.83255
C         17.12877        12.98962         2.11816
C         15.95190        15.15310         2.36538
C         15.94361        16.64490         2.16168
C         17.16338        14.39126         1.99604
C         17.13530        17.28806         1.57078
C         15.82875        19.33200         1.15283
C         17.05600        18.64646         1.21079
C         18.37786         2.19456         2.39921
C         18.41618         3.61775         2.26318
C         19.64590         1.39066         2.54096
C         19.66468         4.32954         2.22451
C         18.44841         6.48932         2.12502
C         18.44191         7.91926         2.06858
C         19.69349         5.76789         2.21461
C         19.70981         8.63060         2.10826
C         18.43458        10.81258         1.87728
C         18.42591        12.25233         2.34995
C         19.71388        10.06595         2.02762
C         19.61780        12.92916         1.70371
C         18.33310        15.12144         1.61034
C         18.34031        16.52521         1.40623
C         19.56931        14.37051         1.32998
C         19.55109        17.19299         0.98110
C         18.29186        19.42125         0.82326
C         19.54240        18.58700         0.68080
C         20.87744         2.13803         2.10421
C         20.86481         3.57459         2.09629
C         22.04088         1.44470         1.85825
C         22.09814         4.26334         1.95905
C         20.94473         6.46703         2.30129
C         20.94545         7.93126         2.26295
C         22.13762         5.66295         2.23478
C         22.15434         8.72466         2.16397
C         20.89547        10.79433         1.91278
C         20.94651        12.30015         2.04076
C         22.13408        10.10790         1.83115
C         22.10815        12.94735         1.33019
C         20.84119        15.08341         1.13055
C         20.79493        16.48085         0.88535
C         22.05677        14.35580         1.06427
C         21.99501        17.16444         0.52353
C         20.69594        19.22940         0.25633
C         21.94840        18.54978         0.16201
C         23.28427         2.11930         1.62685
C         23.31028         3.54991         1.70305
C         24.48252         1.41293         1.45267
C         24.54963         4.23914         1.55315
C         23.46259         6.14308         2.46657
C         23.46720         8.24449         2.41845
C         24.61684         5.62230         1.90350
C         24.63109         8.74230         1.82781
C         23.34119        10.79844         1.48176
C         23.29039        12.21824         1.17413
C         24.55784        10.08636         1.35492
C         24.49206        12.89380         0.76883
C         23.27806        15.04992         0.77073
C         23.24439        16.47212         0.50235
C         24.47540        14.31503         0.66854
C         24.41304        17.17576         0.13900
C         23.11292        19.20594        -0.27972
C         24.36141        18.53413        -0.31372
C         25.71482         2.09275         1.29791
C         25.74796         3.51848         1.30064
C         26.94789         1.38838         1.23540
C         26.97471         4.22251         1.04357
C         25.95140         6.35796         2.00755
C         25.90073         7.93152         1.79634
C         27.01968         5.65757         1.14072
C         27.05074         8.60427         1.07762
C         25.73957        10.74178         0.82931
C         25.69860        12.16818         0.56444
C         26.88375         9.99704         0.59103
C         26.88873        12.85788         0.17783
C         25.75213        15.02280         0.54167
C         25.72332        16.53773         0.26291
C         26.94106        14.27858         0.12794
C         26.89216        17.13581        -0.38252
C         25.55391        19.17775        -0.73851
C         26.80244        18.49928        -0.81622
C         28.14470         2.02655         0.90970
C         28.11404         3.46288         0.63909
C         29.37279         1.25390         1.05877
C         29.24307         4.19244         0.14325
C         28.15714         6.34993         0.67683
C         28.19631         7.79432         0.56919
C         29.28188         5.61419         0.16745
C         29.28681         8.41888        -0.01315
C         28.01210        10.64838        -0.09960
C         28.08501        12.12734        -0.08781
C         29.25032         9.85490        -0.35809
C         29.27182        12.78756        -0.37818
C         28.10319        14.96486        -0.28059
C         28.08237        16.39095        -0.53608
C         29.30079        14.21926        -0.54740
C         29.24907        17.03631        -1.04860
C         27.97969        19.13978        -1.26734
C         29.20881        18.44104        -1.35530
C         30.49293         1.48797         0.27190
C         30.36324         3.52759        -0.41588
C         31.86721         1.20645         0.43180
C         31.62475         4.11224        -0.55424
C         30.44910         6.26779        -0.34534
C         30.46760         7.70815        -0.44125
C         31.61029         5.52649        -0.65951
C         31.59986         8.40351        -0.89057
C         30.53189        10.56180        -0.51310
C         30.53602        12.01877        -0.41519
C         31.67894         9.84822        -0.83538
C         31.79855        12.71909        -0.84018
C         30.44817        14.88107        -1.03685
C         30.44707        16.29189        -1.28411
C         31.63853        14.08473        -1.40456
C         31.60797        16.96496        -1.76644
C         30.40869        19.09935        -1.72220
C         31.62168        18.39059        -1.87088
C         32.92034         1.91780        -0.23057
C         32.84627         3.31893        -0.71324
C         34.18090         1.29868        -0.20209
C         34.01786         3.98870        -1.05300
C         32.76018         6.16233        -1.31557
C         32.74915         7.67135        -1.44006
C         34.04983         5.42435        -1.28802
C         34.02946         8.37374        -1.66411
C         32.90107        10.53029        -1.24077
C         32.94456        11.92147        -1.30934
C         34.06020         9.74999        -1.65407
C         34.15056        12.65239        -1.65055
C         32.87742        14.75485        -1.92283
C         32.83380        16.23105        -2.11550
C         34.17592        14.06218        -1.77542
C         34.15812        16.96862        -2.13159
C         32.86711        19.08778        -2.00062
C         34.10573        18.43699        -1.95372
C         35.35523         1.86170        -0.77940
C         35.25592         3.21856        -1.45442
C         36.55090         1.19059        -0.81364
C         36.54830         3.98876        -1.27743
C         35.22606         6.11765        -1.43479
C         35.23269         7.53117        -1.90109
C         36.52684         5.47871        -1.00963
C         36.56235         8.22244        -2.10151
C         35.27885        10.48843        -2.06405
C         35.35552        11.94393        -1.83822
C         36.57782         9.71183        -2.22439
C         36.58594        12.62867        -1.96412
C         35.41339        14.76616        -1.77308
C         35.40215        16.23082        -1.79241
C         36.64189        14.04794        -1.73974
C         36.53045        16.95839        -1.48970
C         35.32790        19.11904        -1.80493
C         36.53137        18.41476        -1.56353
C         37.73735         1.81646        -1.51137
C         37.71678         3.31199        -1.23909
C         39.04990         1.14469        -1.18653
C         38.97157         4.04311        -0.93927
C         37.80518         6.18230        -1.45259
C         37.83511         7.54784        -1.75224
C         39.02389         5.48041        -1.27214
C         39.06497         8.28502        -1.71209
C         37.84236        10.44778        -2.03757
C         37.76082        11.82367        -2.23746
C         39.07643         9.73448        -1.74827
C         39.42719        12.79423        -1.34410
C         37.91975        14.78649        -1.39241
C         37.81698        16.27681        -1.17765
C         39.01479        13.98355        -0.71503
C         38.76456        17.09311        -0.35451
C         37.72462        19.11372        -1.32218
C         38.81000        18.49449        -0.63189
C         40.19485         1.79657        -0.94149
C         40.25477         3.27417        -0.80451
C         41.49241         4.00913        -1.10835
C         40.26314         6.13656        -1.35310
C         40.27955         7.56924        -1.47256
C         41.48447         5.35207        -1.30669
C         41.47741         8.30275        -1.24785
C         40.23753        10.40623        -1.27506
C         40.20482        11.78376        -0.75051
C         41.43315         9.66779        -1.07682
C         40.79684        12.09295         0.49132
C         39.64099        14.24315         0.51761
C         39.56901        16.62523         0.69419
C         40.53823        13.31978         1.09392
C         40.51100        17.45090         1.33191
C         39.80886        19.30644        -0.03728
C         40.66827        18.77780         0.91797
O         31.50927        12.57122         0.58017
O         12.16592         9.54540         0.36601
O          7.21291        16.42871        -0.85127
O         15.43147        14.75324         3.67375
O         38.91703        12.52212        -2.61929
O         39.53111         3.75101         0.39944
O         17.81840        10.57352         0.58372
O          7.33162        14.56388         2.21503
O         32.40148         6.79256        -2.58646
O          9.85190         5.95924         2.73636
O         26.97352         8.55523         2.57798
O         25.99682        15.99901         1.60516
O         30.20027         2.23522        -0.89278
O         33.48606        16.58949        -3.37924
O         23.60230         7.21865         3.34296
O         38.42562        15.70521        -2.41098
O          7.31570         5.82869         0.91859
O         39.38029        15.36919         1.28855
O         13.04877        16.02007         3.47846
O          8.55716        12.39558         2.62946
O         35.81441        10.14701        -3.38881
O          7.38840         8.61822        -2.54024
O         19.40602        13.25493         0.31855
O         35.86275         7.60980        -3.23461
O          2.54015        14.22333        -0.47524
O         31.94384        14.07554        -2.84073
O         15.41161        17.37841         3.31210
O         28.27888        10.11132        -1.46617
O         14.73310         4.93226         0.47020
O         11.22411         3.80543         2.93216
O         37.54867         1.61696        -2.94403
H         36.69643         2.06045        -3.18957
O         21.17106        12.58122         3.46187
H         22.00820        12.14388         3.72574
O         36.53618         5.63180         0.45762
H         37.34241         5.18119         0.79391
O         10.95787        14.77667        -0.05121
H         10.18426        15.24613        -0.43317
O         35.11286         2.96461        -2.89567
H         34.24563         2.52905        -3.03912
O         19.53133         0.13276         1.86496
H         19.40099         0.30942         0.91092
O         10.70379        10.40458         3.55793
H          9.90190        10.85515         3.90127
O         26.40716         6.16549         3.36758
H         27.00441         6.92225         3.57571
O         18.05902        20.17326        -0.38040
H         17.95024        19.54055        -1.11957
O         18.59316        12.17827         3.78668
H         18.66164        13.08694         4.14721
H          3.77073         1.98653        -6.56497
H          3.30535         4.34967        -6.03857
H          5.48809         0.71087        -5.28986
H          2.71346         6.06226        -5.34765
H          2.21580         8.36288        -4.73950
H          2.00750        10.25725        -4.42820
H          1.54357        12.57122        -3.81331
H          1.27935        14.53867        -3.49483
H          1.12982        16.93066        -3.04250
H          1.92541        18.98481        -1.97347
H          7.18410         0.62586        -3.52466
H          3.78429        20.20332        -0.86493
H          8.82810         0.50183        -1.70441
H          6.04063        20.22368         0.01396
H         10.60334         0.39653        -0.04288
H          8.38687        20.33613         0.61837
H         12.42642         0.34004         1.70438
H         10.90183        20.39481         0.73875
H         14.71591         0.40018         2.38596
H         13.37835        20.37752         0.77774
H         17.18455         0.42090         2.59989
H         15.83324        20.36268         0.76812
H         19.77539         1.14359         3.63409
H         18.47627        20.18610         1.62848
H         22.02420         0.34495         1.87922
H         20.64807        20.29774        -0.00055
H         24.47030         0.31320         1.44882
H         23.05703        20.26025        -0.58768
H         26.94859         0.30415         1.41994
H         25.50508        20.23208        -1.04814
H         29.39694         0.49000         1.85044
H         27.94340        20.20217        -1.54960
H         32.16581         0.38698         1.10390
H         30.40079        20.18970        -1.86640
H         34.26444         0.30234         0.25884
H         32.84735        20.18785        -1.97527
H         36.62709         0.17021        -0.40696
H         35.33853        20.21893        -1.78666
H         39.05962         0.04637        -1.26540
H         37.73999        20.20616        -1.45184
H         41.13004         1.23408        -0.79116
H         42.43158         3.44266        -1.19638
H         42.43785         5.85625        -1.51853
H         42.42747         7.77428        -1.09572
H         42.34523        10.20710        -0.78483
H         41.42245        11.35080         1.00620
H         40.98445        13.56200         2.06686
H         41.11659        17.04164         2.15051
H         39.85324        20.37365        -0.29527
H         41.42805        19.41399         1.39199
