         671
 CSIRO Nanostructure Databank - Neutral Graphene Oxide Data Set
C          5.82580        31.68465         0.23535
C          5.79947        33.02107         0.41617
C          8.42366        27.33793        -0.41085
C          8.34066        28.76237        -0.32180
C          7.12533        29.45729        -0.14107
C          8.32363        31.64345         0.11336
C          7.04298        30.95323        -0.30817
C          8.31463        33.14570         0.16389
C          7.01758        33.88073         0.34433
C          8.25352        36.02701        -0.02511
C          7.03454        35.31806         0.03565
C          8.28948        37.46031        -0.12665
C         10.96163        23.11668        -0.66875
C         10.91253        24.54466        -0.69038
C          9.71714        25.23826        -0.64748
C         10.87120        27.42905        -0.59245
C          9.65733        26.67905        -0.56918
C         10.82539        28.82650        -0.43741
C          9.58518        29.47917        -0.37471
C         10.80799        31.63283        -0.73292
C          9.59893        30.93393        -0.13155
C         10.77341        33.15435        -0.62351
C          9.49147        33.89423        -0.35148
C         10.73752        36.03698        -0.22417
C          9.51470        35.34503        -0.10073
C         10.73657        37.46404        -0.16764
C          9.48304        38.15678        -0.18667
C         10.69838        40.32063         0.27073
C          9.47542        39.65804        -0.40198
C         10.74481        41.80904         0.07525
C         13.41376        18.86135        -0.29246
C         13.38014        20.25171        -0.37285
C         12.17628        20.98520        -0.49429
C         13.36461        23.11976         0.06541
C         12.13913        22.39548        -0.45073
C         13.43946        24.56591        -0.35917
C         12.20332        25.28361        -0.77695
C         13.21763        27.38074         0.25518
C         12.22810        26.80901        -0.81566
C         13.28711        28.87980         0.10610
C         12.07158        29.58594        -0.20708
C         13.23259        31.76354         0.22068
C         12.05593        30.96400        -0.24001
C         13.23682        33.20040        -0.25158
C         12.02484        33.89847        -0.40532
C         13.22459        36.03082        -0.34975
C         11.99096        35.31554        -0.35695
C         13.20043        37.45254        -0.23695
C         11.98699        38.18078        -0.15623
C         13.15244        40.36578        -0.32738
C         11.98343        39.61628        -0.09405
C         13.13433        41.77270        -0.42478
C         11.91168        42.51242        -0.20140
C         13.09899        44.70908        -0.28031
C         11.93107        43.95577        -0.14623
C         13.16771        46.10743        -0.05686
C         15.80096        14.51972         0.14398
C         15.41617        15.81436         0.46619
C         14.48612        16.70772        -0.12269
C         15.88278        18.84285         0.07484
C         14.61115        18.12091        -0.05815
C         15.93133        20.24705        -0.20525
C         14.67490        20.96210        -0.47424
C         15.92767        23.17217        -0.00060
C         14.67592        22.46517        -0.34153
C         15.82388        24.55565         0.36876
C         14.64412        25.29350         0.13295
C         15.74661        27.46571         0.46129
C         14.57978        26.70969         0.27532
C         15.76013        28.88233         0.32211
C         14.50704        29.58011         0.17136
C         15.73260        31.68511        -0.08303
C         14.52704        31.00863         0.04636
C         15.70353        33.11732        -0.46269
C         14.45328        33.90276        -0.33927
C         15.73402        36.03008        -0.51199
C         14.46565        35.31208        -0.43301
C         15.72869        37.44294        -0.52243
C         14.48143        38.16710        -0.22168
C         15.65331        40.31089        -1.02930
C         14.46171        39.66794        -0.34399
C         15.67897        41.80361        -0.78369
C         14.36326        42.50539        -0.77473
C         15.61886        44.73852        -0.55993
C         14.33930        44.01417        -0.70165
C         15.62343        46.09758        -0.38307
C         14.38661        46.83087        -0.13957
C         15.69303        48.94676         0.14418
C         14.46074        48.21636         0.09661
C         15.72426        50.31952         0.44267
C         18.22298        10.34445         0.87301
C         18.24449        11.73353         0.82958
C         17.07134        12.50235         0.56136
C         18.26484        14.64431         0.87335
C         17.03457        13.90462         0.59562
C         18.35789        16.05718         0.83659
C         17.20486        16.89280         0.90276
C         18.40753        18.80249         0.02227
C         17.11890        18.16074         0.31983
C         18.41826        20.29270        -0.18982
C         17.12423        21.01499        -0.20109
C         18.41748        23.17064        -0.30880
C         17.14494        22.45322        -0.19658
C         18.51235        24.49724        -0.68222
C         16.92070        25.28154         1.07091
C         18.27643        27.43210         0.28794
C         17.02044        26.81322         0.93726
C         18.26753        28.86179         0.29951
C         16.99622        29.59897         0.28494
C         18.21764        31.77200         0.04574
C         16.98732        30.99556         0.03646
C         18.22427        33.13235        -0.13153
C         17.01249        33.86629        -0.53254
C         18.21398        36.05180        -0.50841
C         16.97282        35.33930        -0.48053
C         18.20140        37.48577        -0.62777
C         16.94720        38.19749        -0.60133
C         18.18378        40.39507        -0.41129
C         16.93196        39.59792        -0.66043
C         18.13347        41.75267        -1.12880
C         16.84838        42.48865        -0.78114
C         18.18371        44.64115        -0.42262
C         16.86803        43.94121        -0.47707
C         18.19780        46.12468        -0.62561
C         16.88526        46.86783        -0.53135
C         18.17135        48.94421        -0.00954
C         16.93832        48.27948        -0.12907
C         18.19692        50.32550         0.37954
C         16.95096        51.02911         0.55640
C         18.18420        53.10902         1.04083
C         16.96890        52.40723         0.86547
C         18.21631        54.49414         1.33788
C         20.75417         6.05997         0.17077
C         20.68420         7.50064         0.28848
C         19.54197         8.11946         0.72862
C         20.65577        10.34394         0.61511
C         19.48143         9.56441         1.19427
C         20.70584        11.77276         1.08183
C         19.48741        12.47868         1.02366
C         20.75808        14.56502         1.14054
C         19.50390        13.89501         1.01866
C         20.89822        15.96252         0.60521
C         19.61910        16.75590         0.68405
C         20.97398        18.78912         0.19534
C         19.64586        18.09894         0.42259
C         20.92298        20.29283         0.42113
C         19.60106        21.04223         0.37802
C         20.91391        23.15190         0.25415
C         19.73215        22.39590        -0.30990
C         20.79541        24.61495         0.38297
C         19.74020        25.33839        -0.43172
C         20.72038        27.49699         0.21680
C         19.51542        26.75533         0.12615
C         20.71293        28.90749         0.19430
C         19.47556        29.58753         0.20911
C         20.75515        31.73927         0.03797
C         19.48080        31.06934         0.49498
C         20.71095        33.20400        -0.32403
C         19.46128        33.94037         0.19685
C         20.68495        35.96972        -0.75107
C         19.42466        35.33207        -0.40376
C         20.65511        37.48219        -1.00712
C         19.40764        38.22507        -0.76570
C         20.66820        40.35553        -0.95614
C         19.43810        39.62656        -0.75746
C         20.66958        41.78866        -0.97065
C         19.41962        42.52739        -0.90082
C         20.69924        44.61810        -0.52913
C         19.43164        43.88085        -0.68403
C         20.71499        46.10065        -0.31668
C         19.43745        46.86076        -0.36146
C         20.69875        48.91588         0.07190
C         19.43049        48.22643        -0.16844
C         20.68219        50.27522         0.49863
C         19.42861        50.99459         0.61601
C         20.64249        53.07033         1.20750
C         19.42487        52.38209         0.94613
C         20.67350        54.45526         1.44529
C         19.43417        55.19297         1.50911
C         20.69999        57.29985         1.84205
C         19.47394        56.58725         1.74535
C         20.73432        58.69078         2.09653
C         23.17284         3.23499         0.24084
C         21.96738         3.92157         0.13092
C         23.25846         6.05639        -0.16713
C         21.93741         5.34400         0.06591
C         23.18978         7.46214         0.39535
C         21.96083         8.27471        -0.01316
C         23.17101        10.36775         0.73464
C         21.95692         9.61389         0.67034
C         23.18807        11.67386         1.51087
C         21.90715        12.44508         1.31938
C         23.25912        14.48912         1.79179
C         21.93226        13.85034         1.40961
C         23.16718        16.06363         1.93734
C         22.09258        16.73362         1.09647
C         23.32308        18.85123         1.14088
C         22.09551        18.08721         0.94104
C         23.23324        20.34986         1.33734
C         22.05719        21.01066         0.65822
C         23.29259        23.19862         0.90565
C         22.04482        22.47873         0.65961
C         23.28094        24.66300         0.95583
C         21.98364        25.38982         0.83515
C         23.23877        27.47624         0.05390
C         22.02582        26.90475         0.74618
C         23.17645        28.90728        -0.22502
C         21.98221        29.60731         0.01902
C         23.19102        31.75476        -0.40182
C         21.94275        31.04933        -0.09987
C         23.22152        33.14589        -0.42889
C         22.01161        33.92337         0.04688
C         23.18786        36.00198        -0.71760
C         21.98569        35.34250        -0.45236
C         23.14245        37.36287        -1.21433
C         21.95889        38.17303        -0.69969
C         23.10749        40.39068        -0.98539
C         21.91073        39.65971        -0.97969
C         23.12104        41.79352        -1.06941
C         21.90267        42.50433        -1.01431
C         23.15871        44.64559        -0.81398
C         21.95051        43.94498        -0.90665
C         23.26433        46.16231        -0.84929
C         21.90184        46.91261        -0.81679
C         23.15466        48.86106         0.28602
C         21.92463        48.24192        -0.07796
C         23.14825        50.23195         0.69155
C         21.91008        50.90960         0.79890
C         23.21108        53.05115         1.31887
C         21.88009        52.28759         1.29988
C         23.13648        54.50076         1.25686
C         21.92860        55.17270         1.48670
C         23.17526        57.31657         1.68840
C         21.93851        56.60096         1.64469
C         23.19035        58.67447         2.05111
C         21.96124        59.38349         2.22970
C         23.23641        61.47142         2.53560
C         22.00390        60.78362         2.48316
C         24.40437         3.90272         0.37192
C         25.68267         5.99210         0.57122
C         24.48644         5.30730         0.31557
C         25.75764         7.41179         0.69253
C         24.47004         8.15145         0.71647
C         25.72523        10.28632         1.14227
C         24.52446         9.63903         0.68058
C         25.72406        11.74084         1.56707
C         24.44243        12.44699         1.22598
C         25.71884        14.59905         1.04991
C         24.38289        13.90720         0.88963
C         25.75686        15.99282         1.20420
C         24.59267        16.77307         1.79804
C         25.76692        18.83607         0.74661
C         24.50708        18.18276         1.23951
C         25.83119        20.32776         0.99634
C         24.56097        21.09054         1.19065
C         25.74522        23.23134         0.55069
C         24.52684        22.54895         0.91855
C         25.69616        24.55067         0.12309
C         24.53810        25.39143         0.44001
C         25.46332        27.36980        -1.01415
C         24.39277        26.76074        -0.11678
C         25.61415        28.86337        -0.81310
C         24.38621        29.59698        -0.59864
C         25.60989        31.71242        -0.94520
C         24.39096        31.01047        -0.66685
C         25.64435        33.09546        -0.90242
C         24.43881        33.84991        -0.68095
C         25.66372        36.02497        -0.92561
C         24.41836        35.25627        -0.77893
C         25.60682        37.41953        -1.53678
C         24.23474        37.87501        -1.92109
C         25.62306        40.36973        -1.33538
C         24.42167        39.78909        -0.61215
C         25.66276        41.78998        -0.95857
C         24.41112        42.54999        -1.28716
C         25.59841        44.58741        -0.37524
C         24.39384        43.94728        -0.74845
C         25.61556        45.94655        -0.02417
C         24.28077        46.62898         0.21413
C         25.61080        48.75570         0.59525
C         24.37663        48.12947         0.29867
C         25.63581        50.18671         0.80975
C         24.41339        50.90536         0.87802
C         25.66762        53.01609         0.91184
C         24.44744        52.32410         0.98881
C         25.67341        54.48172         0.77289
C         24.34911        55.25505         0.93497
C         25.64193        57.32837         1.27302
C         24.41609        56.66083         1.32411
C         25.65849        58.83268         1.44531
C         24.52077        59.32007         2.36488
C         24.44127        60.82008         2.42554
C         26.92978         8.12656         0.90437
C         28.15895        10.28122         1.17309
C         26.94541         9.55802         1.13162
C         28.18405        11.71351         1.06267
C         26.96206        12.44740         1.09642
C         28.18356        14.55082         0.83243
C         26.94400        13.85790         0.95499
C         28.18190        15.97160         0.79607
C         26.98175        16.68127         1.04391
C         28.23205        18.82907         0.53629
C         27.05992        18.17851         1.24297
C         28.20166        20.25867         0.29025
C         27.04644        21.00802         0.50587
C         28.19201        23.14089        -0.14777
C         27.08967        22.50826         0.66681
C         28.13709        24.45187        -0.49555
C         26.84660        25.17714        -0.56356
C         28.05838        27.37350        -1.16569
C         26.78851        26.60490        -1.05366
C         28.06967        28.76279        -1.21165
C         26.81722        29.49627        -1.07909
C         28.12184        31.67811        -1.40586
C         26.79634        30.94751        -1.49139
C         28.14209        33.04683        -1.44681
C         26.93827        33.80196        -1.02909
C         28.08925        35.97326        -1.73915
C         26.96305        35.29126        -0.97522
C         28.11648        37.48409        -1.56696
C         26.90418        38.15961        -1.76344
C         28.13957        40.42961        -1.59505
C         26.86719        39.64113        -1.71914
C         28.10418        41.74346        -0.96698
C         26.87862        42.40698        -0.72421
C         28.09461        44.59796        -0.59096
C         26.87544        43.80004        -0.13785
C         28.09337        45.96597         0.04503
C         26.85216        46.63540         0.23738
C         28.09189        48.66004         1.10997
C         26.82927        48.01352         0.60244
C         28.11302        50.16185         0.96060
C         26.88950        50.87911         0.93709
C         28.12220        53.06421         1.05841
C         26.89899        52.31689         0.95791
C         28.11528        54.45110         1.11965
C         26.91527        55.22065         1.01247
C         26.86102        56.61589         1.12084
C         29.40068        12.41487         0.88463
C         30.64313        14.55037         0.71283
C         29.42845        13.82801         0.78785
C         30.66604        15.97449         0.63525
C         29.40246        16.68184         0.58017
C         30.65012        18.67891        -0.24698
C         29.37119        18.08251         0.29594
C         30.57200        20.18762        -0.44596
C         29.41455        20.89518        -0.18798
C         30.65465        23.04638        -0.68483
C         29.32989        22.30679        -0.71359
C         30.62320        24.41159        -0.78628
C         29.34224        25.12105        -1.02927
C         30.57655        27.37161        -1.11025
C         29.32403        26.61717        -1.27683
C         30.57810        28.77171        -1.18901
C         29.32958        29.50134        -1.32414
C         30.60750        31.62594        -1.33998
C         29.35822        30.90788        -1.41430
C         30.64126        33.05398        -1.40321
C         29.40608        33.80210        -1.84334
C         30.53744        35.94458        -1.17964
C         29.40093        35.27003        -1.44447
C         30.50775        37.39704        -0.73651
C         29.34197        38.15531        -1.34440
C         30.65438        40.28842        -0.91677
C         29.45777        39.59453        -1.45105
C         30.63429        41.64651        -0.65005
C         29.33302        42.33193        -0.32608
C         30.57721        44.50264        -0.18645
C         29.37850        43.83486        -0.38888
C         30.57751        45.93002         0.05041
C         29.34146        46.63321         0.23824
C         30.58504        48.70312         0.69617
C         29.35612        47.99136         0.63720
C         30.55759        50.12293         0.93669
C         29.36572        50.83385         1.01212
C         29.44145        52.33615         1.19941
C         31.84700        16.71744         0.70772
C         33.08024        18.88650         0.35685
C         31.79313        18.22733         0.74902
C         33.40673        20.16998         0.68870
C         31.71705        20.88665        -1.00055
C         33.16062        22.97193        -0.72644
C         31.90028        22.30498        -0.77302
C         33.18100        24.43697        -1.00167
C         31.86033        25.18104        -1.00192
C         33.04781        27.38072        -0.61670
C         31.75459        26.63192        -0.54220
C         33.04438        28.73155        -0.87944
C         31.82812        29.48176        -1.11221
C         33.05783        31.65439        -1.09061
C         31.84353        30.91279        -1.19288
C         33.05421        33.07035        -1.01100
C         31.81916        33.76728        -1.20095
C         33.05513        35.97127        -0.86801
C         31.86039        35.26097        -1.45864
C         33.05209        37.37850        -0.74998
C         31.83781        38.12265        -0.87828
C         33.09529        40.24024        -0.55761
C         31.87045        39.52541        -0.81017
C         33.08449        41.64837        -0.38927
C         31.85033        42.36767        -0.39056
C         33.06320        44.48153         0.01599
C         31.82802        43.76702        -0.16987
C         33.03667        45.88696         0.19151
C         31.81725        46.61508         0.24097
C         31.79621        48.01277         0.49588
C         34.57476        20.88675         0.04940
C         35.50755        23.13512         0.00034
C         34.37760        22.36631        -0.25223
C         35.60178        24.53923        -0.19426
C         34.47515        25.26051        -0.89900
C         35.56602        27.39371        -0.26461
C         34.27181        26.61876        -0.16062
C         35.56150        28.73746        -0.46732
C         34.34310        29.43372        -0.95246
C         35.53472        31.63863        -0.58805
C         34.34759        30.92986        -1.09916
C         35.59262        33.14334        -0.70297
C         34.24880        33.82587        -0.75845
C         35.46577        35.94141        -0.25129
C         34.24109        35.22816        -0.62255
C         35.48578        37.36606        -0.24649
C         34.28783        38.09057        -0.48505
C         35.53347        40.20717        -0.11508
C         34.30389        39.50591        -0.40031
C         35.51965        41.61954        -0.02423
C         34.31667        42.35462        -0.13287
C         34.28206        43.75910         0.03462
C         36.72734        25.24593         0.17220
C         38.02910        27.33389        -0.01028
C         36.81434        26.67904        -0.01831
C         38.15467        28.77275        -0.31027
C         36.82626        29.51311        -0.44724
C         37.64632        31.67708         0.60154
C         36.63295        30.96021        -0.13749
C         37.77452        33.04087         0.57378
C         36.47131        33.77467         0.36709
C         37.83432        35.90242         0.48031
C         36.61220        35.24624         0.14637
C         37.87293        37.30133         0.40510
C         36.70833        38.05318         0.07896
C         36.71580        39.46463         0.10508
C         39.48869        29.46433        -0.13146
C         40.58728        31.69559         0.59375
C         39.59892        30.62127         0.57055
C         40.30282        33.01527         0.82298
C         39.01795        33.72803         0.83733
C         39.01442        35.11743         0.79746
O         14.69881        21.84920        -1.65681
O         37.63412        29.19302        -1.63489
O         24.20312        25.29120         1.87604
O         13.12969        24.72899        -1.78342
O         20.65347        36.59368        -2.12346
O         25.94061        40.19705        -2.78429
O         18.59948        19.41327        -1.33241
O         14.20384        43.33052        -2.00229
O         24.90801        54.94574        -0.39029
O         17.54476        44.22302         0.83132
O         24.58182        39.29272         0.50417
O         29.30007        25.62515        -2.41277
O         16.10008        16.38266         1.57212
O          9.93269        33.65304        -1.73688
O          9.11669        31.16706         1.24278
O         27.80260        35.77895        -3.11977
O         22.70941        16.24170         3.25593
O         32.49664        24.82841        -2.25544
O         34.56674        30.06920        -2.27267
O         17.64375        24.73725         1.89934
O         22.59903        52.49759         2.55122
O          7.94093        33.60379         1.49388
O         26.63026        25.48703        -2.00982
O         20.86146        45.25820         0.84458
O         29.03624        40.22181        -2.71552
O         23.56793         7.62280         1.78129
O         16.36866        33.34049        -1.75504
O         14.72413        39.07096         0.95440
O         25.63559        37.19087        -0.05142
O         38.49264        30.90626         1.39757
O         23.95526        10.29733        -0.54371
O         25.44293        20.77135         2.34932
O         20.93873        25.01049         1.79965
O         17.51993        46.57794        -1.84400
O         27.28250        34.56804         0.23606
O         12.69508        27.23529        -2.10793
H         13.13353        26.45489        -2.52421
O         30.27467        37.34697         0.71477
H         30.26575        38.26699         1.05489
O         20.57423        33.25100        -1.76840
H         21.37093        32.84386        -2.16987
O         27.47554        22.70488         2.07090
H         26.84230        22.16563         2.60669
O         20.30946        25.55335        -1.76901
H         20.93165        26.31309        -1.73382
O         31.41492        18.65680         2.08421
H         30.55830        18.23502         2.31551
O         21.12789        15.75322        -0.83343
H         20.33153        15.31695        -1.20288
O         22.13251        33.95160         1.51155
H         22.90974        34.50789         1.73484
O         22.08775        27.38420         2.11743
H         21.52412        26.78181         2.65332
O         23.58825        13.98592         3.11455
H         23.23215        14.70409         3.72136
O          9.47117        39.92337        -1.80811
H         10.23110        39.46009        -2.21682
O         22.05202         8.47728        -1.46137
H         22.77889         9.13619        -1.59274
O         23.97525        38.65969        -2.98500
H         24.80393        39.06612        -3.35025
O         32.83214        20.85173         1.71123
H         32.16348        20.25454         2.13741
O         34.96765        20.25693        -1.18283
H         35.40906        19.40762        -0.97751
O         19.49248        31.17348         1.96132
H         20.27475        30.68148         2.29041
O         35.73815        33.61694         1.62740
H         36.26566        34.04084         2.33665
O         26.98961        43.65446         1.31370
H         26.16074        43.24884         1.64620
O         22.08770        38.09359         0.75933
H         22.98263        38.45883         0.98723
O         32.45231        20.26761        -1.91247
H         33.26547        20.77094        -2.14493
O         34.10274        26.30516         1.25337
H         33.13303        26.20393         1.42882
O         20.35390        10.42602        -0.81761
H         21.11323        10.85084        -1.26982
O         31.42022        26.45359         0.91816
H         31.22533        27.34628         1.27905
O         24.49189        42.73315        -2.76082
H         24.97331        41.95766        -3.13288
O         18.23758        40.70581         1.01588
H         18.19775        39.86313         1.51502
O         12.59248        27.06329         1.53476
H         13.21673        27.30564         2.25090
O         30.96253        18.07073        -1.51470
H         30.21321        18.23054        -2.12502
O         26.54157        30.87923        -2.94577
H         25.81659        30.23459        -3.09452
O         13.07473        31.90536         1.69062
H         12.97127        31.00438         2.06574
O         32.02276        35.36959        -2.91755
H         31.25172        34.89827        -3.32249
O         27.23780        18.44541         2.65371
H         26.47872        18.00245         3.12297
O         29.16842        42.01308         1.11960
H         28.43790        42.59649         1.45853
O         20.04220        22.11528        -1.70533
H         20.03850        22.96234        -2.20024
O         23.78654        46.16236         1.50195
H         24.41296        46.45793         2.19500
O         10.73984        31.30044        -2.14932
H         10.20729        32.00477        -2.58823
O         29.46106        33.81385        -3.30131
H         28.77464        34.50484        -3.57576
O         23.87619        46.47733        -2.13272
H         24.41758        45.71098        -2.42178
O         34.94618        25.53183        -2.23052
H         34.15541        25.62663        -2.81021
O         19.47868        34.10357         1.63279
H         20.42030        34.11843         1.93654
O          7.00412        31.19395        -1.76750
H          6.26967        30.66188        -2.14045
O         17.53002        25.15144        -1.36699
H         17.88089        26.00471        -1.69622
O         25.76958        18.65361        -0.70414
H         24.84251        18.59070        -1.01932
O         30.42055        52.90489         0.31622
H         30.09874        52.80307        -0.60278
O         17.16054        27.23998         2.32885
H         17.67094        26.52481         2.77983
O         29.00209        22.12773        -2.13322
H         28.93423        23.02048        -2.53980
O         25.03333        16.99501         3.17321
H         24.18434        16.87082         3.70662
O         19.23661        21.25251         1.76486
H         19.96375        21.73862         2.21050
O         25.53254        59.42433         0.15004
H         25.39028        60.38681         0.26616
O         23.95153        14.09197        -0.48997
H         24.63648        13.71543        -1.08118
O         23.24441        11.27378         2.90606
H         23.42039        12.10729         3.41330
O         24.89429        27.29298        -2.36402
H         25.29401        26.49723        -2.79128
O         21.52135        47.22784        -2.17794
H         22.35693        47.29740        -2.69909
O         13.29580        23.10756         1.51587
H         13.08885        22.19593         1.80986
O         15.45760        40.11265        -2.46147
H         16.25654        40.48745        -2.90368
O         22.87108        20.47576         2.75034
H         23.68805        20.28785         3.26709
O         23.42905         6.16999        -1.60920
H         22.75846         6.82523        -1.92813
O         21.27884        18.67362        -1.23018
H         20.47028        18.97838        -1.71078
O         27.92786        44.79508        -2.03407
H         28.72653        45.25342        -2.37030
O         24.89904        58.85543         3.70639
H         24.20824        59.16357         4.33032
O         28.07703        48.43221         2.59042
H         27.30479        48.92384         2.94452
O         36.23422        33.38543        -1.98775
H         35.71549        32.92559        -2.68172
O         10.48084        40.09890         1.70608
H         11.28695        40.39370         2.18029
O         18.05941        41.44401        -2.55401
H         18.10414        42.28412        -3.05776
O         19.63178         9.54358         2.63975
H         18.86802         9.06551         3.02352
O         25.84727        11.71661         3.04602
H         26.67444        11.23121         3.25463
H          4.89273        31.11051         0.35551
H          4.85627        33.50659         0.71413
H          7.49987        26.74183        -0.37104
H          6.18791        28.88337        -0.06872
H          6.08471        35.86682        -0.04529
H          7.33791        38.01240        -0.15145
H         10.02304        22.56324        -0.83012
H          8.77265        24.67544        -0.59594
H          8.54324        40.10555         0.02142
H          9.82206        42.36829         0.29412
H         12.46431        18.30605        -0.33052
H         11.23715        20.43239        -0.65206
H         10.98987        44.46885         0.10310
H         12.24814        46.64741         0.21515
H         15.16490        13.92572        -0.52974
H         13.60628        16.29924        -0.64362
H         13.52944        48.76630         0.30036
H         14.78037        50.85890         0.61058
H         17.26694         9.81379         0.73578
H         16.14081        11.96253         0.32708
H         16.01567        52.94414         0.98127
H         17.26730        55.04652         1.40960
H         19.81443         5.49695         0.29813
H         18.66543         7.48751         0.95685
H         18.52814        57.14130         1.84104
H         19.78985        59.24137         2.21599
H         23.15756         2.13763         0.30776
H         21.01778         3.36636         0.16259
H         23.22403        62.56406         2.66494
H         21.06318        61.34002         2.59453
H         25.31170         3.31869         0.58768
H         26.59623         5.40477         0.75634
H         26.63719        59.15025         1.91077
H         25.38213        61.38391         2.51605
H         27.89487         7.59815         0.88692
H         29.10965         9.73365         1.09537
H         29.07320        54.97969         1.23714
H         27.80462        57.17696         1.20147
H         30.34677        11.85412         0.85978
H         31.59673        14.00249         0.74085
H         31.50980        50.67137         0.97933
H         29.82659        52.52371         2.24193
H         32.81473        16.20490         0.80758
H         33.59138        18.44060        -0.50772
H         33.98500        46.42610         0.33569
H         32.74857        48.55709         0.58164
H         35.44192        20.81048         0.76603
H         36.38844        22.63091         0.42986
H         36.46005        42.15334         0.17973
H         35.22344        44.30188         0.20897
H         37.59606        24.71051         0.58769
H         38.94162        26.76946         0.23770
H         38.80566        37.83696         0.63717
H         37.64826        39.99597         0.34756
H         40.29655        29.13164        -0.80066
H         41.64111        31.42539         0.41907
H         41.17535        33.69058         0.85094
H         39.96472        35.66034         0.91898
