         273
 CSIRO Nanostructure Databank - Neutral Graphene Oxide Data Set
C        -11.23391         0.58093         0.31994
C        -10.06769         1.33909        -0.07767
C         -8.73850         0.60552        -0.05344
C         -7.65472         1.21340        -0.97579
C         -6.30299         0.52322        -0.70949
C         -4.99861         1.25997        -0.63549
C         -3.79202         0.54719        -0.12071
C         -2.47428         1.22786        -0.09133
C         -1.23936         0.52530         0.36930
C          0.00023         1.37443         0.45289
C          1.23834         0.60557         0.23242
C          2.52533         1.31309        -0.04456
C          3.79754         0.57511         0.21630
C          5.03851         1.40826         0.19936
C          6.34581         0.74074         0.43623
C          7.56845         1.36399        -0.17275
C          8.87210         0.68316         0.07489
C         10.14432         1.45258        -0.00556
C         11.36903         0.63751        -0.22506
C        -10.10111         2.69580        -0.24673
C         -8.88875         3.49379        -0.55385
C         -7.61314         2.76345        -0.86044
C         -6.29364         3.49827        -0.72056
C         -4.98023         2.76014        -0.73855
C         -3.67888         3.47320        -0.38690
C         -2.60655         2.69123         0.37764
C         -1.28451         3.45738         0.55080
C          0.00091         2.73212         0.39407
C          1.31580         3.48292         0.59529
C          2.47987         2.80316        -0.13788
C          3.76305         3.57349        -0.25658
C          5.03697         2.76750        -0.52767
C          6.29342         3.54817        -0.16104
C          7.55396         2.88243        -0.37065
C          8.84968         3.60420        -0.24156
C         10.06097         2.90918        -0.21311
C         -8.82436         4.93716        -0.26927
C         -7.61282         5.65444        -0.26206
C         -6.32240         4.87069        -0.04228
C         -5.05939         5.67041        -0.36988
C         -3.72702         4.96255        -0.25364
C         -2.58554         5.69855         0.39781
C         -1.27833         4.95014         0.53240
C         -0.00846         5.69469         0.24427
C          1.29084         4.99281         0.39993
C          2.46198         5.70973         0.39543
C          3.76075         5.00394         0.14306
C          5.03304         5.66496         0.56919
C          6.34711         4.86933         0.56540
C          7.53888         5.70443         0.08165
C          8.76796         5.01466        -0.16626
C         -7.60437         7.04909        -0.27489
C         -6.41450         7.85362         0.18108
C         -5.10757         7.14222        -0.15106
C         -3.87972         7.98591         0.17095
C         -2.59574         7.19246         0.40399
C         -1.30904         8.00761         0.47766
C         -0.03260         7.19529         0.24926
C          1.24747         7.97036         0.55171
C          2.51447         7.17082         0.30412
C          3.70324         7.84499         0.23692
C          4.99905         7.15907         0.52036
C          6.30078         7.94509         0.41044
C          7.48804         7.07803         0.05831
C         -6.30786         9.27370        -0.36605
C         -5.16237         9.87573        -0.73758
C         -3.81546         9.16337        -0.86507
C         -2.56251         9.92600        -0.51941
C         -1.27801         9.15925        -0.64913
C          0.03709         9.91543        -0.49245
C          1.20071         9.32279        -0.14366
C          2.51181        10.00283        -0.48002
C          3.77288         9.36281         0.12478
C          4.98973         9.73432        -0.70500
C          6.14813         9.07930        -0.57783
C        -11.20965        -0.76476         0.61348
C        -10.03709        -1.56796         0.44400
C         -8.88575        -0.92005        -0.29408
C         -7.58088        -1.58688         0.06356
C         -6.34412        -0.78406         0.05051
C         -5.04695        -1.48020         0.39200
C         -3.85440        -0.84149        -0.20123
C         -2.35829        -1.61535         1.65951
C         -1.13118        -0.73313         1.33803
C          0.04327        -1.57758         0.92694
C          1.25699        -0.85281         0.47153
C          2.55137        -1.56104         0.79053
C          3.82221        -0.73325         0.59546
C          5.09495        -1.52376         1.01078
C          6.51096        -0.72639         0.89830
C          7.55837        -1.46579         0.06734
C          8.81302        -0.76387        -0.32383
C         10.08709        -1.49479        -0.73125
C         11.33718        -0.69590        -0.40827
C         -9.97974        -2.94484         0.63321
C         -8.77715        -3.68768         0.39154
C         -7.54373        -2.94072         0.25962
C         -6.23012        -3.65632         0.28301
C         -5.10770        -2.91385         1.01288
C         -3.76390        -3.70781         1.18267
C         -2.41474        -3.03157         1.19507
C         -1.23591        -3.69500         0.90573
C          0.02192        -2.94087         0.76363
C          1.13430        -3.54713        -0.12052
C          2.56497        -2.82056        -0.14052
C          3.80056        -3.61430         0.25110
C          5.09381        -2.85132         0.12540
C          6.36121        -3.63094        -0.06086
C          7.65500        -2.95501         0.45173
C          8.91222        -3.65663        -0.04908
C         10.07829        -2.95467        -0.31777
C         -8.74680        -5.10669         0.32102
C         -7.58651        -5.83690         0.04551
C         -6.25791        -5.12914         0.09296
C         -5.04790        -5.95269         0.53056
C         -3.79734        -5.19871         0.97841
C         -2.49492        -5.97252         0.84559
C         -1.21152        -5.18794         0.79355
C         -0.01095        -5.90193         0.23586
C          1.22442        -5.09969        -0.05391
C          2.50948        -5.89768         0.28888
C          3.82065        -5.10381         0.31144
C          5.14309        -5.88538         0.33366
C          6.36112        -5.08606        -0.07759
C          7.60880        -5.79234         0.03390
C          8.85429        -5.07322        -0.02500
C         -7.61998        -7.27576        -0.10959
C         -6.60739        -7.93965        -0.77910
C         -4.69952        -6.88428        -0.59947
C         -3.65082        -7.72084        -0.60111
C         -2.51396        -7.38931         0.28301
C         -1.24504        -8.15373         0.06731
C          0.05398        -7.43355         0.32049
C          1.31819        -8.06308        -0.16434
C          2.49220        -7.17688        -0.59216
C          3.82782        -7.94102        -0.60595
C          5.12357        -7.22564        -0.39891
C          6.42782        -8.03404        -0.28698
C          7.58968        -7.19287         0.18087
C         -6.19483        -9.33451        -0.74632
C         -4.94051        -9.79226        -1.02877
C         -3.71585        -8.97058        -1.47244
C         -2.41205        -9.74500        -1.45170
C         -1.26705        -9.33056        -0.86352
C          0.02471       -10.06786        -1.11072
C          1.33643        -9.42025        -0.80944
C          2.62551       -10.12119        -0.52456
C          3.79199        -9.42078        -0.40080
C          4.99820       -10.02770         0.17216
C          6.16316        -9.37036         0.37105
O          0.36206        -5.58649        -1.12598
O         -5.53634         3.34862        -1.94686
O          7.48939         1.89092        -1.49298
O          3.73312         4.63197        -1.29173
O         -1.55592         0.60862        -1.08644
O         -5.69468        -0.57427         1.34420
O         -2.85469         6.41300         1.64790
O         -2.09072        -8.40043         1.24621
O          0.49658        -3.19703        -1.31995
O         -1.66717        -5.84161         2.02476
O         -3.19361        -1.18822         2.45625
O         -3.94318        -4.63987         2.31035
O          5.71777        -2.85884        -1.15946
O         -0.06066         6.47052        -1.00435
O         -5.46174         0.57362        -1.89579
O          5.72641         1.54142         1.48649
O         -3.22156         4.31880        -1.47087
O          7.72329        -1.03069        -1.29051
O         -5.90855        -4.23348        -1.02096
O         -1.24766         4.23800         1.81922
O         -5.14819         6.57539        -1.50659
O          1.06930        -0.37999        -0.88403
O          4.61226        -7.35960        -1.74511
O          4.96323        -1.88594         2.32446
O          2.30077         2.01851        -1.33514
O          9.51669         1.01668         1.31666
O          7.64658        -3.03072         1.82350
O          0.94013        -8.12234         1.24041
O          3.75410        -4.26319         1.54359
O         -5.74915        -7.10360        -1.52041
O         -8.38409         3.31694        -1.96514
O          4.89391         6.41997         1.81144
O          6.53484         8.55147         1.71948
H          6.37374         7.84615         2.38614
O         -3.92208        -8.60817        -2.85431
H         -4.69995        -8.00405        -2.88554
O         -5.61630        -2.76175         2.34314
H         -4.98693        -2.17880         2.82962
O          2.41523        -1.96765         2.15135
H          3.33855        -2.10060         2.52494
O          2.65698         9.95749        -1.91028
H          1.76717         9.95627        -2.32058
O          5.04221         2.47527        -1.93370
H          4.60330         3.22057        -2.40058
O         -3.16178         2.50691         1.70436
H         -2.75907         3.18842         2.29429
O         -3.72996         8.68416        -2.21692
H         -4.38967         7.96511        -2.35950
O          5.37479        -6.28307         1.71133
H          5.22546        -5.48305         2.26783
O          6.89430        -8.37834        -1.63089
H          6.15852        -8.14360        -2.25052
O          3.95245         9.90407         1.45215
H          4.82244         9.57649         1.78785
O          0.82397        -9.48391        -2.17958
O         -6.58336         7.94115         1.62831
H         -5.97036         8.64639         1.94260
O          1.65856         3.28874         2.00415
H          0.90405         3.61958         2.54063
O          2.20777        -6.84091        -1.95278
H          3.05185        -6.67864        -2.42896
O         -6.25222         4.58674         1.38216
H         -6.52240         5.39576         1.87006
O         -4.10619         8.66309         1.43279
H         -3.88464         8.02339         2.14670
O         -7.97552         0.93710        -2.34816
H         -7.16407         1.13738        -2.87114
O         -9.19935        -1.23572        -1.67205
H         -8.71872        -0.60074        -2.26253
O          1.29266         8.22436         1.98087
H          0.55760         8.84432         2.19708
O         -5.44127        -6.78217         1.65073
H         -5.11259        -6.34540         2.46955
O         -1.28827         8.65783         1.75517
H         -1.61602         8.01341         2.42083
O         -1.14170         8.52977        -1.91782
H         -2.02589         8.47768        -2.35933
O         10.09243        -1.58893        -2.18940
H          9.14855        -1.65412        -2.47080
O         -2.89299        -1.60232        -0.74559
H         -2.22707        -1.00237        -1.19123
O         -8.21649         0.79192         1.28463
H         -8.82418         0.36566         1.92454
O         -0.82903        -0.08005         2.59362
H         -1.67162        -0.04738         3.10586
O          6.64482         4.52507         1.94856
H          6.17460         5.17742         2.51834
O          7.07441        -0.68164         2.19077
H          6.40785        -1.12888         2.79146
O          2.38243        -6.33227         1.65439
H          2.63226        -5.57867         2.23591
O          2.79791        -2.39276        -1.47357
H          1.90169        -2.41659        -1.91922
H         12.28986        -1.23930        -0.50536
H         12.34056         1.14598        -0.12081
H         11.00003         3.48398        -0.23586
H          9.69840         5.60230        -0.19412
H          8.40224         7.62071        -0.23232
H          7.03260         9.37934        -1.16023
H          4.90687        10.57737        -1.40632
H          2.47367        11.08068        -0.14687
H          0.07735        10.91437        -0.95974
H         -2.63796        10.60194         0.34895
H         -5.20415        10.92087        -1.08342
H         -7.24068         9.86116        -0.37258
H         -8.56515         7.57689        -0.37764
H         -9.77131         5.49876        -0.24944
H        -11.05771         3.23420        -0.15030
H        -12.18171         1.13077         0.42589
H        -12.13315        -1.25055         0.96426
H        -10.87603        -3.48742         0.97305
H         -9.70336        -5.64850         0.38439
H         -8.45748        -7.83658         0.33258
H         -6.93949       -10.06361        -0.38666
H         -4.78033       -10.87861        -0.92674
H         -2.37575       -10.62754        -2.11042
H         -0.04396       -11.17712        -1.16498
H          2.62149       -11.20504        -0.32528
H          4.89532       -11.06050         0.54078
H          7.00354        -9.88877         0.85672
H          8.54744        -7.71698         0.33065
H          9.78322        -5.65366        -0.14606
H         10.98933        -3.52651        -0.56405
