         252
 CSIRO Nanostructure Databank - Neutral Graphene Oxide Data Set
C         30.52857        31.75561        -0.81263
C         30.56388        32.96426        -1.05468
C         30.94363        36.13713        -2.17121
C         31.20042        37.29272        -2.53006
C         31.26334        40.34309        -2.70123
C         31.15593        41.61320        -2.52376
C         32.65338        29.08138         0.66325
C         31.66844        29.61880         0.15016
C         32.91312        31.68604        -0.29721
C         31.61637        30.75721        -0.80502
C         32.93002        33.04481        -0.52580
C         31.69697        33.87582        -0.87199
C         33.30239        35.75910        -1.72314
C         31.85428        35.26449        -1.41041
C         33.45839        37.26093        -2.02122
C         32.40780        38.09562        -2.44912
C         33.47793        40.38747        -1.93193
C         32.39101        39.54629        -2.46936
C         33.27684        41.76919        -1.32577
C         31.98971        42.53075        -1.95330
C         33.08820        44.46305        -1.07545
C         32.12147        43.89931        -1.66269
C         35.31196        27.51105         1.80159
C         35.16814        28.95339         1.52021
C         33.95404        29.67265         0.99932
C         35.31574        31.61286         0.31449
C         34.08571        31.00403         0.26890
C         35.49078        32.98598        -0.20023
C         34.23812        33.75346        -0.57735
C         35.66294        35.85639        -0.77312
C         34.26172        35.28881        -0.58163
C         35.76074        37.31983        -1.01383
C         34.80457        37.76343        -1.89237
C         35.80692        40.48488        -1.02462
C         34.76662        39.93831        -1.88425
C         35.74230        41.82788        -0.80059
C         34.59020        42.60184        -1.45764
C         35.46487        44.67380        -0.25193
C         34.42298        44.02344        -0.85865
C         35.54730        45.98968         0.29484
C         37.76559        27.39204         1.80065
C         36.40575        26.94095         1.91267
C         37.71971        28.83893         1.48326
C         36.52712        29.53300         1.27716
C         37.79623        31.64949         0.90410
C         36.59835        30.82893         0.50236
C         37.82013        33.07265         0.69019
C         36.72029        33.73011         0.17219
C         37.96139        35.96459         0.27008
C         36.84939        35.13786        -0.25674
C         37.94311        37.35010         0.22766
C         37.03084        38.13402        -0.72889
C         37.81433        40.33019         0.53992
C         36.63531        39.55377        -0.13181
C         38.02165        41.80225         0.35769
C         36.93316        42.54860        -0.31202
C         37.90158        44.67721         0.70091
C         36.82321        44.03878        -0.08887
C         37.80784        46.04298         1.07539
C         36.51123        46.60232         0.78477
C         40.13927        24.54016         1.63898
C         39.16980        25.29201         1.86583
C         40.32630        27.38524         1.72104
C         38.94491        26.69996         1.85248
C         40.23217        28.82377         1.23901
C         38.97685        29.53493         1.34004
C         40.28237        31.64368         1.36967
C         38.96142        30.95198         1.18965
C         40.26849        33.11142         1.05749
C         39.07884        33.80097         0.85388
C         40.32279        35.90202         0.95867
C         39.10487        35.23015         0.75501
C         40.29685        37.32797         1.27031
C         38.98065        38.06257         0.99078
C         40.22064        40.26032         1.63065
C         38.96933        39.55662         1.11153
C         40.23095        41.77175         1.59708
C         39.11145        42.48257         0.87411
C         40.26966        44.64839         1.35250
C         39.11451        43.95189         0.93078
C         40.18621        46.02573         1.74990
C         38.92755        46.72751         1.57532
C         39.89870        49.01391         1.40437
C         39.03665        48.13018         1.70549
C         42.62918        24.50191         0.64818
C         41.27674        25.03853         0.84173
C         42.65361        27.30485         0.59549
C         41.35057        26.57187         0.89858
C         42.45072        28.70970         0.02668
C         41.35573        29.46417         0.75445
C         42.69660        31.58828         0.87796
C         41.35229        30.95259         0.51879
C         42.75353        33.06335         0.89670
C         41.52861        33.78101         0.97103
C         42.78737        35.91371         0.93322
C         41.54903        35.20052         0.96220
C         42.74328        37.36436         1.16297
C         41.57060        38.05954         1.35935
C         42.76961        40.31250         1.48496
C         41.54408        39.49045         1.90784
C         42.83123        41.75200         1.83407
C         41.51001        42.55583         1.99562
C         42.78874        44.68359         1.75456
C         41.59626        43.89929         1.25268
C         42.60739        45.96589         2.20576
C         41.35219        46.65408         2.27338
C         42.44721        49.00838         1.14117
C         41.23920        48.88106         1.81323
C         43.60115        25.11932         0.19235
C         44.83693        27.21039        -0.81563
C         43.90743        26.55728         0.19514
C         45.02518        28.76406        -0.51835
C         43.78242        29.49231        -0.10019
C         45.19940        31.58646         0.31474
C         43.94921        30.82251         0.57798
C         45.17809        32.97395         0.38739
C         43.97230        33.74698         0.68753
C         45.22804        35.97086         0.37710
C         43.97577        35.18739         0.72736
C         45.30423        37.33044         1.06797
C         44.03107        38.05913         1.40767
C         45.29276        40.29469         1.17701
C         44.04723        39.57928         1.51329
C         45.32897        41.66204         1.19923
C         44.17952        42.50288         1.70803
C         45.16998        44.91758         0.90960
C         44.21809        44.11286         1.84466
C         44.93814        46.26153         0.43162
C         44.14130        47.17495         1.16627
C         43.50158        48.37230         0.86858
C         47.27567        27.31865        -0.74071
C         46.23549        26.66912        -0.82854
C         47.59579        28.69773        -0.49509
C         46.34839        29.43800        -0.25363
C         47.71640        31.49980         0.05959
C         46.39626        30.79748         0.02088
C         47.67232        32.98941        -0.03881
C         46.36724        33.76098        -0.12828
C         47.80126        35.88309         0.29851
C         46.50891        35.11226         0.65237
C         47.76723        37.38316         0.22670
C         46.55936        38.09431         0.80394
C         47.21959        40.25375        -0.42615
C         46.64576        39.60659         0.86777
C         47.50278        41.72116        -0.06392
C         46.61783        42.24099         0.85058
C         47.33370        44.72459        -0.41203
C         46.42637        44.36021         0.62842
C         46.84995        45.93619        -0.96615
C         45.84249        46.60680        -0.62115
C         50.03383        28.80281        -1.13865
C         48.81363        29.30475        -0.61533
C         49.99028        31.50122        -1.27654
C         49.05318        30.78240        -0.25525
C         49.89914        32.98167        -1.42437
C         48.78299        33.70814        -0.74869
C         50.07468        35.91839        -0.99181
C         48.95561        35.14550        -0.36980
C         49.95363        37.40841        -1.05008
C         48.55037        37.99919        -0.93411
C         49.79330        40.34704        -1.05863
C         48.47146        39.58391        -1.13435
C         49.78282        41.79298        -1.06260
C         48.60838        42.49719        -0.59669
C         49.64299        44.47134        -1.34510
C         48.48929        43.93662        -0.72952
C         51.00203        29.36372        -1.69185
C         52.02859        31.64425        -2.50231
C         51.06059        30.80141        -1.84909
C         52.02413        32.88961        -2.46944
C         51.08070        33.80331        -1.91130
C         52.06042        36.13830        -2.25557
C         51.09086        35.17257        -1.83763
C         52.07403        37.36490        -2.04191
C         50.99640        38.18225        -1.52137
C         52.00963        40.48495        -1.79130
C         50.95565        39.62018        -1.46844
C         52.08503        41.74333        -1.82925
C         50.95479        42.53509        -1.53699
C         50.74231        43.93351        -1.61553
O         36.57259        35.22607        -1.74100
O         44.24675        29.55138        -1.48332
O         35.08984        33.16418        -1.60648
O         43.42913        30.89199         1.93523
O         39.80519        41.04243         2.79551
O         48.66044        33.44435        -2.19414
O         43.78632        27.17375         1.49911
O         31.51513        35.04840        -0.01951
O         43.73000        41.97339         2.98790
O         46.91775        43.42198         1.53119
O         39.29306        37.55120         2.32320
O         43.76321        46.74493         2.47114
O         37.83633        39.96085         1.95545
O         46.27688        37.49557         2.12458
O         48.30147        39.81767        -2.51621
O         47.90652        32.37514         1.24251
O         44.12852        38.68204         2.70757
O         35.12392        38.86603        -2.69010
O         34.32518        29.75876         2.39281
O         40.83637        25.86492        -0.26528
O         41.36737        47.91019         2.91460
O         50.18932        35.36309         0.37866
O         37.37113        43.50605        -1.35820
O         48.42806        36.71651         1.32975
O         46.15473        40.20979        -1.38605
H         46.63095        40.18009        -2.26617
O         33.67257        35.05125        -2.91820
H         34.64696        34.91732        -2.93822
O         46.53362        34.76619         2.03450
H         46.84107        35.56150         2.52998
O         41.91548        28.55727        -1.31510
H         42.61885        28.13337        -1.87233
O         41.07730        31.20118        -0.87590
H         41.36308        30.40842        -1.39371
O         47.55943        39.91272         1.93577
H         47.33816        39.32412         2.69159
O         31.87664        30.33036        -2.10467
H         32.50165        29.57804        -2.09819
O         37.78918        38.37279        -1.93079
H         37.76207        37.56029        -2.47981
O         46.08616        33.99235        -1.53257
H         46.88929        33.82256        -2.08155
O         41.38170        42.92998         3.37211
H         41.01452        42.16290         3.86594
O         40.69176        31.48126         2.75159
H         40.13377        32.05825         3.31305
O         47.87893        37.44422        -2.09273
H         47.93461        38.17662        -2.77727
O         35.68208        39.24918         0.90844
H         36.16105        39.28061         1.77294
O         36.86901        30.39251        -0.89014
H         37.82321        30.17213        -0.96258
O         45.12826        36.34586        -1.01355
H         45.26303        35.53514        -1.56738
O         33.00495        41.66622         0.06809
H         32.26576        41.03925         0.20976
O         44.20253        27.06756        -2.07624
H         44.78663        27.43362        -2.77307
O         40.90225        27.45615         3.04354
H         40.45987        28.16558         3.55430
O         41.64684        39.33843         3.34109
H         41.04399        39.99348         3.76199
O         34.89255        42.75674        -2.84863
H         35.78448        43.16435        -2.91930
O         33.88112        35.80060         0.70042
H         32.92436        35.59885         0.85808
O         49.81595        30.74021         0.96492
H         49.48566        31.46032         1.55404
O         44.69625        44.35325         3.16788
H         44.24898        43.71359         3.76767
O         41.81865        43.55853        -0.14429
H         41.71845        44.36576        -0.69136
