         324
 CSIRO Nanostructure Databank - Neutral Graphene Oxide Data Set
C         30.51590        57.20352        -0.66699
C         30.44374        58.64727        -0.35128
C         29.25282        59.43925        -0.67037
C         30.50196        61.54691        -0.50105
C         29.29698        60.81362        -0.66368
C         32.97207        52.85280        -0.91654
C         32.55471        54.14730        -0.50460
C         31.64041        55.05763        -0.99666
C         32.99321        57.19388        -0.48228
C         31.66555        56.46365        -0.58447
C         33.01165        58.70117        -0.50204
C         31.73789        59.42784        -0.22947
C         32.97927        61.56860        -0.35704
C         31.73953        60.89788        -0.38411
C         35.48145        48.70270        -0.87296
C         35.47201        50.12363        -0.76519
C         34.28441        50.86006        -0.76988
C         35.50635        52.98881        -0.34936
C         34.23793        52.27489        -0.62621
C         35.54458        54.43787        -0.09640
C         34.38776        55.20367         0.14110
C         35.50539        57.31422        -0.22330
C         34.30006        56.57319        -0.14434
C         35.49580        58.76878        -0.27323
C         34.26926        59.45179        -0.28469
C         35.45370        61.58887        -0.17939
C         34.22116        60.87933        -0.25086
C         37.97674        44.44144        -0.85577
C         37.91216        45.83051        -0.76050
C         36.69847        46.53810        -0.94593
C         37.93931        48.68587        -1.10790
C         36.66301        47.94626        -0.96331
C         37.83625        50.14078        -1.15286
C         36.71999        50.87258        -0.78234
C         38.03134        53.04101        -0.38379
C         36.71813        52.30602        -0.52660
C         38.03092        54.51238        -0.20377
C         36.73394        55.20637        -0.16900
C         38.04963        57.32982        -0.22443
C         36.72498        56.60768        -0.11788
C         37.96213        58.80718         0.08382
C         36.71888        59.49870        -0.16770
C         37.96823        61.68893        -0.14365
C         36.66987        60.91952        -0.12760
C         40.44763        40.13904        -0.76457
C         40.41448        41.55060        -0.63771
C         39.20273        42.28194        -0.75070
C         40.42029        44.37417        -0.43510
C         39.18363        43.68263        -0.66463
C         40.41362        45.84790        -0.43753
C         39.10702        46.58081        -0.19655
C         40.41958        48.74232        -0.01143
C         39.26036        48.02855        -0.66974
C         40.29684        50.12269         0.47108
C         39.53991        51.13604        -0.26396
C         40.03341        52.96965         1.34519
C         39.21067        52.35026         0.22288
C         40.20603        54.46193         1.08783
C         39.17198        55.18968         0.47087
C         40.23991        57.29134         1.06822
C         39.16056        56.59968         0.50766
C         40.08215        58.75074         1.42534
C         39.06634        59.49039         0.56339
C         40.25827        61.62799         0.80746
C         39.12337        60.93753         0.49436
C         42.95109        35.92857        -1.20384
C         42.87760        37.27281        -0.80749
C         41.69039        38.01034        -0.89045
C         42.87654        40.12926        -0.38399
C         41.64643        39.41735        -0.64356
C         42.86661        41.53504        -0.34593
C         41.65111        42.25565        -0.43529
C         42.84185        44.39570         0.08422
C         41.63084        43.68817        -0.31582
C         42.82116        45.78197         0.37323
C         41.66078        46.58943        -0.03230
C         42.61838        48.56552         1.14740
C         41.53442        47.99770         0.43337
C         42.54545        49.93467         1.71675
C         41.33216        50.76878         1.43789
C         42.50761        52.92472         2.06412
C         41.35482        52.22302         1.52267
C         42.53165        54.42473         2.01654
C         41.35392        55.15976         1.51759
C         42.65951        57.29671         1.63627
C         41.39777        56.57608         1.46127
C         42.66350        58.70007         1.60057
C         41.41736        59.46911         1.59900
C         42.78451        61.56838         1.02302
C         41.48417        60.97668         1.31427
C         45.48912        33.22725        -1.80013
C         44.25408        33.87695        -1.66493
C         45.41861        35.92020        -0.96839
C         44.18930        35.22326        -1.25495
C         45.39532        37.26792        -0.53661
C         44.08008        37.89607        -0.13421
C         45.29530        40.05484         0.08135
C         44.10698        39.40071        -0.20868
C         45.32635        41.50004         0.21546
C         44.17240        42.29394        -0.34520
C         45.18810        44.32131         0.74120
C         44.05052        43.67756         0.24399
C         45.10868        45.65986         1.17498
C         43.93302        46.41768         0.96308
C         45.03703        48.52143         1.62718
C         43.87219        47.85180         1.28887
C         45.13550        49.91847         2.19284
C         43.81318        50.66026         2.13013
C         45.09692        52.87988         1.80217
C         43.84906        52.16669         2.21823
C         45.09683        54.30739         1.61929
C         43.89097        55.11751         1.91175
C         45.11248        57.18410         1.33070
C         43.88644        56.55812         1.60812
C         45.21483        58.64393         1.45847
C         43.92640        59.45183         1.67801
C         45.23539        61.49940         1.12838
C         43.96901        60.88549         1.28306
C         46.68149        33.89948        -1.55956
C         47.87628        35.98584        -0.92722
C         46.67163        35.26066        -1.15071
C         47.85005        37.31708        -0.54319
C         46.59620        37.96254        -0.33082
C         47.72200        39.99179         0.51200
C         46.56136        39.34552         0.12617
C         47.62446        41.34801         1.10019
C         46.42740        42.13136         0.71202
C         47.63211        44.24860         1.41359
C         46.52801        43.62791         0.60653
C         47.62969        45.62272         1.57896
C         46.32553        46.32113         1.66968
C         47.57934        48.50493         1.36805
C         46.31067        47.80107         1.79132
C         47.54053        50.00873         1.52550
C         46.33340        50.68974         1.67315
C         47.43095        52.74769         0.88646
C         46.25068        52.11009         1.51003
C         47.39550        54.24157         0.61880
C         46.21229        55.00300         1.07693
C         47.37640        57.10932         0.23663
C         46.24481        56.41646         0.97692
C         47.51986        58.60443         0.52028
C         46.41592        59.32884         0.96964
C         47.68808        61.40661         0.84500
C         46.44386        60.76414         1.02027
C         49.14444        38.09797        -0.43238
C         50.15978        40.01387         0.79894
C         49.03237        39.38847         0.36213
C         50.18814        41.26873         1.65270
C         48.84547        42.01335         1.65783
C         50.10048        44.25857         1.49835
C         48.85166        43.52034         1.92571
C         50.06104        45.65209         1.47618
C         48.84765        46.34948         1.72495
C         50.08758        48.56105         1.51035
C         48.82775        47.84592         1.97207
C         50.03051        50.00181         1.31584
C         48.78943        50.69805         1.29202
C         49.92105        52.77767         0.59602
C         48.74479        52.07921         0.95566
C         49.88431        54.20023         0.33832
C         48.68557        54.94399         0.44832
C         49.87112        57.03760         0.02564
C         48.68293        56.35273         0.32294
C         49.86473        58.47125        -0.18128
C         48.73113        59.28429         0.18282
C         50.09344        61.45060         0.53476
C         48.84858        60.70845         0.46375
C         51.36076        42.15405         1.30802
C         52.56004        44.30375         1.18412
C         51.33593        43.53459         1.31266
C         52.56340        45.68308         1.13845
C         51.25533        46.41708         0.97229
C         52.56950        48.61601         1.45343
C         51.26416        47.87248         1.37453
C         52.47553        50.01502         0.89627
C         51.22549        50.69335         0.92412
C         52.35922        52.72834         0.10410
C         51.16604        52.06953         0.54670
C         52.28039        54.12516        -0.21861
C         51.10344        54.87260        -0.01489
C         52.28829        57.01459        -0.43543
C         51.08799        56.31154        -0.18245
C         52.32454        58.45282        -0.57613
C         51.03893        59.05314        -0.67234
C         52.59287        61.48006        -0.08066
C         51.22268        61.13753        -0.21261
C         53.76309        46.44275         0.98787
C         54.94809        48.57030         0.69482
C         53.77061        47.83754         0.96343
C         54.93353        49.96604         0.50266
C         53.64560        50.67472         0.48158
C         54.84785        52.58126        -0.60427
C         53.59304        52.02480         0.06204
C         54.82648        54.09598        -0.74371
C         53.50173        54.82902        -0.62341
C         54.71169        56.97295        -0.43076
C         53.50874        56.29219        -0.48990
C         54.78006        58.40925        -0.78689
C         53.52884        59.19985        -0.66354
C         54.94350        61.25525        -0.70151
C         53.65305        60.63900        -0.53016
C         56.13291        50.69296         0.35767
C         57.31452        52.81411        -0.00598
C         56.13892        52.06031         0.00196
C         57.34221        54.23289        -0.23386
C         56.02862        54.86562        -0.36317
C         57.72325        57.28895        -0.31716
C         55.85762        56.20031        -0.07713
C         57.42076        58.42492        -0.98614
C         56.08667        59.08933        -1.05612
C         57.31821        61.20315        -1.45903
C         56.11505        60.57512        -1.05372
C         58.55260        54.91577        -0.43667
C         59.79163        56.87229        -1.45386
C         58.76052        56.33278        -0.71917
C         59.82105        58.38626        -1.59095
C         58.43473        58.95736        -1.95556
C         59.60272        61.09384        -2.40677
C         58.45697        60.48393        -1.90544
C         60.84842        58.98725        -2.51543
C         60.72959        60.30806        -2.83200
O         42.92870        50.05545         3.12807
O         39.01975        50.77188        -1.51821
O         47.89997        41.36050         2.57945
O         31.04769        58.97203         0.97109
O         43.18801        54.94534         3.19772
O         55.32907        58.54568        -2.21287
O         38.94027        48.16405        -2.06481
O         40.06767        50.20286         1.93556
O         43.07948        52.53854         3.37966
O         44.79660        59.10633         2.79201
O         33.09234        57.95467        -1.76409
O         46.27560        46.97885         2.99777
O         41.28736        46.42538        -1.45124
O         33.24972        54.59086         0.64086
O         54.10526        54.48094        -1.95631
O         56.83905        56.84999         0.67685
O         41.36664        60.44870         2.69661
O         47.11640        53.28862        -0.45873
O         50.95203        60.28134        -1.31220
O         38.37355        53.92980        -1.52394
O         51.05994        46.48597        -0.49413
H         51.91275        46.76585        -0.89111
O         44.53271        42.51953        -1.76474
H         43.79192        43.01276        -2.17991
O         52.80862        48.78730         2.90336
H         53.66296        49.25994         3.00039
O         60.10520        58.91383        -0.25400
H         61.00373        58.61721         0.00016
O         48.82500        43.66382         3.38479
H         48.19687        42.98080         3.71509
O         54.82995        52.01772        -1.94830
H         54.36100        52.67621        -2.51467
O         46.97317        57.02714        -1.17758
H         47.72257        57.35671        -1.71821
O         50.19707        37.27444         0.07585
H         50.00060        37.06853         1.01248
O         45.43567        49.74615         3.60595
H         44.59815        49.47502         4.04666
O         47.63157        48.28059        -0.07214
H         48.48972        48.61725        -0.40886
O         37.82076        62.98432         0.43961
H         37.62049        62.87193         1.39126
O         43.91966        37.58515         1.29862
H         43.88116        36.60836         1.37984
O         38.90414        46.64638         1.24247
H         38.62972        45.76039         1.55895
O         50.43314        40.81128         3.01754
H         49.54798        40.59829         3.39385
O         46.93058        43.85751        -0.79803
H         46.21602        43.47047        -1.36474
O         48.76712        48.06776         3.40061
H         49.48274        47.55313         3.82796
O         39.44523        58.72422         2.73945
H         39.84045        59.46505         3.25826
O         58.07768        58.55207        -3.29182
H         57.09656        58.57940        -3.36097
O         38.43197        57.28291        -1.64210
H         38.40128        56.34297        -1.92798
O         39.31504        52.84619         2.60393
H         39.36049        51.89575         2.86258
H         29.57226        56.69791        -0.92404
H         28.32407        58.91664        -0.94259
H         30.47102        62.64470        -0.55393
H         28.37291        61.37705        -0.85908
H         32.25541        52.22021        -1.46430
H         30.90700        54.75673        -1.75968
H         32.99110        62.66815        -0.40471
H         34.51720        48.17394        -0.84132
H         33.33290        50.32191        -0.89708
H         35.44567        62.68885        -0.17091
H         37.06756        43.89185        -1.14433
H         35.75835        45.97390        -1.04079
H         38.23797        61.85910        -1.22520
H         39.51215        39.59849        -0.97256
H         38.26445        41.73725        -0.93237
H         40.28339        62.71594         0.64023
H         42.04092        35.42354        -1.56314
H         40.77353        37.51178        -1.24238
H         42.81942        62.57153         0.57250
H         45.51219        32.17517        -2.11747
H         43.32336        33.33576        -1.88793
H         45.27602        62.59102         0.99786
H         47.64367        33.38367        -1.68876
H         48.84434        35.48464        -1.07409
H         47.74678        62.49538         0.98945
H         49.44800        38.37815        -1.48201
H         51.12690        39.51002         0.64194
H         50.13285        62.28708         1.24874
H         52.32878        41.64550         1.17656
H         53.51615        43.75799         1.18308
H         52.86489        62.43197         0.40091
H         54.71088        45.90279         0.83214
H         55.89541        48.02618         0.55795
H         54.98075        62.35453        -0.64141
H         57.08807        50.18687         0.56792
H         58.26052        52.30771         0.24411
H         57.35750        62.30480        -1.47038
H         59.45442        54.28339        -0.49571
H         60.58351        56.24661        -1.89296
H         59.64598        62.18861        -2.51363
H         61.72582        58.40480        -2.83571
H         61.52077        60.80725        -3.41173
