         349
 CSIRO Nanostructure Databank - Neutral Graphene Oxide Data Set
C          2.08218         1.79356        -2.31566
C          1.96949         3.18533        -2.21890
C          3.24348         1.14567        -1.91608
C          3.02518         3.97175        -1.71496
C          1.80684         6.13977        -2.16140
C          1.70328         7.49643        -2.12383
C          2.92354         5.41209        -1.60029
C          2.63291         8.32035        -1.34242
C          1.62133        10.54577        -2.03955
C          1.56029        11.91423        -2.00899
C          2.72054         9.79462        -1.50391
C          2.54762        12.70493        -1.27947
C          1.58384        14.99026        -2.17693
C          1.72561        16.33192        -2.30190
C          2.52528        14.25097        -1.24405
C          2.83985        17.05002        -1.69605
C          2.90117        18.50097        -1.66502
C          4.33433         1.88613        -1.39487
C          4.22760         3.31781        -1.28601
C          5.51488         1.23037        -0.97694
C          5.31686         4.06564        -0.76459
C          3.99539         6.13186        -1.05020
C          3.87117         7.57791        -0.79879
C          5.20838         5.48542        -0.66411
C          5.10713         8.35527        -0.59887
C          3.90117        10.45610        -1.14707
C          3.87599        11.93139        -0.99336
C          5.09428         9.73649        -0.78724
C          5.12550        12.67389        -0.92510
C          3.91513        14.85310        -1.44918
C          3.94950        16.32560        -1.27284
C          5.17252        14.12013        -1.14893
C          5.13574        16.96802        -0.79660
C          3.90398        19.13188        -1.00913
C          4.89320        18.33079        -0.18650
C          6.60938         1.94453        -0.45756
C          6.52870         3.38931        -0.35378
C          7.76872         1.28548         0.00596
C          7.60289         4.10294         0.17847
C          6.29597         6.26103        -0.15269
C          6.30792         7.66706        -0.21503
C          7.44361         5.54733         0.42131
C          7.50963         8.42952         0.11403
C          6.38582        10.44563        -0.75331
C          6.38571        11.94853        -0.91474
C          7.55547         9.82627        -0.11433
C          7.56831        12.67964        -0.43907
C          6.43008        14.87747        -0.92586
C          6.38424        16.32875        -0.78681
C          7.56670        14.10790        -0.67523
C          7.56998        17.15783        -0.47573
C          6.14412        19.06511         0.18226
C          7.37624        18.49180         0.13303
C          8.86695         1.99550         0.53222
C          8.82055         3.44982         0.59534
C         10.03253         1.32965         0.95067
C          9.94080         4.16915         1.02567
C          8.65617         6.34290         0.81550
C          8.68309         7.79561         0.57176
C         10.00117         5.65767         0.79637
C          9.86184         8.53934         0.87391
C          8.69571        10.59803         0.26043
C          8.65674        12.04547         0.12674
C          9.85086         9.95159         0.77374
C          9.74552        12.88618         0.78665
C          8.88542        14.66663        -0.70482
C          8.84631        16.83491        -0.87190
C          9.90740        14.20658         0.07336
C         10.07107        17.43946        -0.29510
C          8.56489        19.28028         0.47944
C          9.79867        18.73234         0.40134
C         11.15538         2.03444         1.44247
C         11.12598         3.49696         1.50731
C         12.33298         1.35998         1.76409
C         12.21678         4.19644         2.00759
C         10.93432         6.41931         1.71457
C         11.00063         7.88275         1.48086
C         12.13370         5.65323         2.22609
C         12.15285         8.59314         1.86459
C         10.98729        10.74469         1.43018
C         11.06903        12.16032         0.91765
C         12.31279         9.99861         1.51375
C         12.26171        12.83793         0.79868
C         11.11356        14.98557         0.27200
C         10.97311        16.47923         0.58424
C         12.26088        14.29464         0.58213
C         12.31191        17.18689         0.76160
C         11.14367        19.21643        -0.05775
C         12.31355        18.71770         0.79934
C         13.50611         2.05479         2.20104
C         13.33299         3.46869         2.73748
C         14.69850         1.39310         2.20748
C         14.67186         4.24675         2.83944
C         13.33300         6.44126         2.50958
C         13.19382         7.81021         2.51938
C         14.69911         5.80193         2.77559
C         14.99304         8.75893         1.81852
C         13.54165        10.70671         1.28313
C         13.52587        12.11846         0.95949
C         14.83805        10.05683         1.21220
C         14.75044        12.80513         0.78913
C         13.52755        15.05446         0.60866
C         13.47600        16.51131         0.89489
C         14.79477        14.29150         0.65275
C         14.72135        17.29349         1.30926
C         13.63051        19.24766         0.28183
C         14.80167        18.58970         0.52455
C         16.03697         1.99491         2.52817
C         15.98451         3.53431         2.63781
C         17.02872         1.52457         1.49999
C         17.20445         4.28246         2.26983
C         15.74014         6.28310         1.71509
C         15.63530         7.67687         1.27620
C         17.13178         5.60173         1.62143
C         17.38464         8.57601         0.58434
C         16.00852        10.70615         0.71621
C         15.97672        12.12256         0.64170
C         17.28563         9.99069         0.63598
C         17.21952        12.89265         0.38095
C         16.04596        15.00450         1.07114
C         16.02634        16.48463         1.31018
C         17.30419        14.32477         0.71371
C         17.34336        17.27002         1.27897
C         16.07059        19.16544         0.19229
C         17.28443        18.58366         0.52661
C         18.21901         2.17290         1.32561
C         18.42237         3.48020         2.02248
C         19.19541         1.69377         0.39385
C         19.69316         4.20752         1.79328
C         18.44209         6.37039         1.40016
C         18.48732         7.83104         1.08841
C         19.63768         5.70602         1.65890
C         19.67569         8.60138         1.23446
C         18.51291        10.69019         0.68724
C         18.53637        12.13191         0.39652
C         19.70204         9.98405         0.92430
C         19.79422        12.88937         0.55399
C         18.52725        15.01031         0.69398
C         18.56008        16.46638         0.83466
C         19.75245        14.30680         0.49215
C         19.74147        17.16001         0.71205
C         18.51409        19.24841         0.30397
C         19.75441        18.60267         0.52005
C         20.44955         2.30156         0.25187
C         20.75553         3.47360         1.03690
C         21.51408         1.71401        -0.48641
C         22.07810         3.80995         1.19577
C         20.90682         6.47195         1.89265
C         20.89713         7.95584         1.74645
C         22.28366         5.87372         1.77484
C         22.29226         8.59173         1.67234
C         20.98617        10.71840         0.80305
C         20.98473        12.18098         0.65308
C         22.27153        10.02917         1.17061
C         22.33195        12.83040         0.48258
C         21.01153        15.07396         0.17393
C         21.04066        16.41709         0.88809
C         22.28799        14.33539         0.48348
C         22.29457        17.18026         0.51996
C         20.98055        19.28357         0.37177
C         22.24378        18.62824         0.38530
C         22.81290         2.25307        -0.50160
C         23.12996         3.43667         0.29562
C         23.81860         1.67326        -1.30618
C         24.29590         4.20173         0.10891
C         23.33404         6.38585         1.05864
C         23.27346         7.85393         0.71206
C         24.44619         5.61414         0.46374
C         24.64708         8.53285         0.72851
C         23.54849        10.79718         1.43783
C         23.28930        12.32432         1.58225
C         24.81099         9.96129         1.14648
C         24.55273        13.13994         1.56418
C         23.46252        15.02782         0.56793
C         23.47077        16.48517         0.43901
C         24.70540        14.32210         0.92148
C         24.78184        17.16355         0.12184
C         23.44581        19.32930         0.24103
C         24.72132        18.67451         0.25849
C         25.08972         2.25229        -1.39161
C         25.46258         3.47694        -0.56234
C         26.07295         1.68983        -2.20667
C         26.31256         4.41290        -1.42698
C         25.55532         6.36416         0.00081
C         25.71085         7.80611         0.21439
C         26.69101         5.64690        -0.63840
C         26.95112         8.50047        -0.19661
C         26.09854        10.60496         0.78486
C         26.38565        11.91729         1.17669
C         27.08052         9.92424         0.02779
C         27.38219        12.70541         0.59560
C         26.03163        14.93722         0.47863
C         25.96835        16.47774         0.88114
C         27.35453        14.18885         0.80148
C         27.27019        17.24153         0.61905
C         25.88558        19.38490         0.14425
C         27.21968        18.79222         0.50483
C         27.31289         2.35453        -2.46567
C         27.48606         3.69265        -2.05569
C         28.33775         1.70131        -3.21757
C         28.66013         4.39963        -2.41972
C         27.93231         6.38219        -1.05369
C         27.99268         7.84328        -0.85097
C         28.85594         5.76270        -2.03355
C         29.14442         8.55159        -1.34586
C         28.25357        10.64222        -0.37741
C         28.38455        12.05150        -0.14575
C         29.29301         9.94518        -1.07170
C         29.58812        12.77593        -0.51792
C         28.58335        14.92588         0.36708
C         28.47421        16.44004         0.15905
C         29.75077        14.16038        -0.19186
C         29.17320        17.17173        -0.96147
C         28.43737        19.36996        -0.18856
C         29.45818        18.62124        -0.68285
C         29.47431         2.37994        -3.58433
C         29.65412         3.74323        -3.21281
C         30.79095         4.47737        -3.63586
C         29.97817         6.47196        -2.47861
C         30.15090         7.87424        -2.09621
C         30.93514         5.80580        -3.30009
C         31.29139         8.59179        -2.49564
C         30.47009        10.64340        -1.47107
C         30.64248        12.04997        -1.13574
C         31.45693         9.93478        -2.17953
C         31.86518        12.70832        -1.38885
C         31.00247        14.77501        -0.42641
C         31.28715        16.20735        -0.15722
C         32.03977        14.03162        -1.02987
C         31.88955        16.97897        -1.11591
C         30.76722        19.18849        -0.98728
C         31.88684        18.43843        -1.15228
O          7.73040         5.91159         1.84256
O         16.28138         7.90269         0.04233
O         17.87799        12.48771        -0.86855
O         24.34751        10.26975         2.51204
O         21.87282        10.08699        -0.23394
O         29.19985        16.68376        -2.08319
O         28.42031        17.02823         1.49730
O         16.06435         5.46628         0.56078
O         11.02097        18.21775        -1.16957
O         15.42430         3.83466         4.03214
O         25.63083        12.51527         2.19163
O          2.74778         7.92819         0.06721
O         22.42142         4.59191         2.30771
O         16.01561        15.54773         2.45585
O         19.43404         3.59755         3.10816
O         20.69071         7.34702         3.07176
O         28.28615        14.64560         1.80369
O         10.96808         6.01149         3.10023
O         27.87490         5.56894         0.19774
O          2.86249        12.24202         0.06511
O          6.66667        11.06345        -2.07321
O         14.26638         8.57566         3.00451
O          9.09254        15.69246        -1.63822
O          4.64875        14.37069        -2.60470
O         14.31615        14.78349        -0.64666
O         22.61334        12.45173         2.84837
H         23.21990        12.10340         3.53774
O         24.99310        17.00822        -1.32148
H         24.23618        17.43547        -1.77600
O         30.99651        16.71308         1.07233
H         30.54419        16.04616         1.62767
O         27.37213        19.27593         1.88226
H         28.13821        18.78743         2.26227
O          4.19841        18.06132         1.08847
H          3.37153        17.57706         0.87447
O         26.06465        14.75600        -0.95546
H         25.33238        15.26999        -1.37315
O         16.48211         1.46924         3.80762
H         16.14573         2.07918         4.50215
O         20.97565        15.33759        -1.25923
H         21.05619        14.47642        -1.72216
O          2.09997        14.63963         0.08916
H          2.30060        13.88288         0.68987
O         15.18342         6.31743         4.02174
H         15.54400         5.55151         4.53267
O         12.14349        19.19942         2.14712
H         12.88831        18.82293         2.67601
O         10.53481        10.87523         2.84643
H         10.51932         9.97158         3.23291
O          9.27816        13.18816         2.14430
H          9.50508        12.40546         2.70657
O         12.84943         3.32940         4.09913
H         13.64106         3.22706         4.67476
O         21.12705        16.11796         2.31046
H         21.16145        16.96702         2.79858
O         22.87790        12.45059        -0.81193
H         22.61165        11.50907        -0.98154
O         17.62093        17.63414         2.66299
H         17.42948        16.83458         3.20324
O         10.33936        16.46878         1.89446
H         10.01785        15.56346         2.10162
O         22.85843         8.51041         2.97707
H         22.23384         8.00634         3.55426
O         14.50113        17.69924         2.69324
H         14.75980        16.93515         3.25724
O         25.66054        16.54631         2.27650
H         26.48634        16.35667         2.77216
O         26.31272         3.01639         0.51598
H         25.77544         2.45952         1.11647
O         10.56161         5.85176        -0.54151
H         10.10133         5.24950        -1.16310
O         25.48015         4.90482        -2.51581
H         25.24299         4.13838        -3.08072
O         22.78240         7.93049        -0.64898
H         23.44019         7.49142        -1.22894
H          1.23887         1.21083        -2.71165
H          1.03102         3.65803        -2.53716
H          3.32633         0.05252        -1.99690
H          1.05480         5.58134        -2.73579
H          0.91249         7.98926        -2.70750
H          0.80065         9.99824        -2.52487
H          0.76028        12.43122        -2.55758
H          0.71995        14.47880        -2.62562
H          0.99256        16.91353        -2.88153
H          2.12314        19.07266        -2.19297
H          5.57299         0.13412        -1.04978
H          3.94081        20.23050        -0.96445
H          7.81576         0.18740        -0.04228
H          6.03220        20.07931         0.59457
H         10.08269         0.23316         0.87529
H          8.42266        20.33754         0.74996
H         12.39952         0.27525         1.58865
H         11.24575        20.26660        -0.41828
H         14.70614         0.33193         1.90897
H         13.64613        20.22994        -0.21682
H         16.82349         0.59023         0.95587
H         16.07065        20.14526        -0.31094
H         18.98291         0.75970        -0.14714
H         18.50290        20.28241        -0.07382
H         21.31759         0.79965        -1.06525
H         20.96080        20.37134         0.20353
H         23.58125         0.79127        -1.91961
H         23.42646        20.42867         0.18479
H         25.87768         0.72301        -2.69540
H         25.84312        20.48504         0.10197
H         28.19167         0.65314        -3.51524
H         28.59925        20.44822        -0.02180
H         30.25185         1.88370        -4.18275
H         31.55411         3.97749        -4.24949
H         31.82084         6.34387        -3.66117
H         32.08678         8.09641        -3.06651
H         32.37262        10.43692        -2.51681
H         32.70556        12.17329        -1.84869
H         33.00984        14.51688        -1.20553
H         32.22919        16.47414        -2.03390
H         30.83844        20.28696        -1.02468
H         32.82235        18.94470        -1.44722
