         284
 CSIRO Nanostructure Databank - Neutral Graphene Oxide Data Set
C        -11.24292         0.82645         0.65545
C        -10.13662         1.59916        -0.04713
C         -8.84854         0.80990         0.09164
C         -7.52279         1.50028         0.12727
C         -6.44057         0.80819        -0.66987
C         -5.18932         1.52515        -1.10588
C         -3.95495         0.73878        -1.44971
C         -2.63523         1.54111        -1.22693
C         -1.38519         0.73325        -1.64464
C         -0.06866         1.45678        -1.70404
C          1.25200         0.70923        -1.54869
C          2.50396         1.44925        -1.16456
C          3.68425         0.76735        -0.98309
C          4.91900         1.44346        -0.49924
C          6.20390         0.65647        -0.30260
C          7.42921         1.37208         0.16736
C          8.77692         0.66801         0.35458
C         10.01111         1.54280         0.06562
C         11.19963         0.76830         0.63353
C         -9.95714         3.05527         0.32858
C         -8.77255         3.70763         0.38648
C         -7.42192         2.99570         0.48770
C         -6.21929         3.71952        -0.15909
C         -5.06823         3.00059        -0.81454
C         -3.96224         3.74170        -1.55454
C         -2.71103         2.89789        -1.97268
C         -1.37793         3.70286        -1.86280
C         -0.11602         2.94769        -1.50125
C          1.17248         3.68640        -1.36223
C          2.44558         2.93454        -1.02580
C          3.73200         3.69350        -0.83981
C          4.99056         2.94311        -0.52075
C          6.32969         3.62730        -0.59296
C          7.50202         2.85983        -0.07825
C          8.64206         3.58354         0.55388
C          9.81870         2.92830         0.67557
C         -8.71453         5.16120         0.83288
C         -7.43212         5.89764         0.46109
C         -6.35206         5.20919        -0.30675
C         -5.12810         5.97016        -0.75612
C         -3.91460         5.23221        -1.32510
C         -2.56437         5.78139        -0.93759
C         -1.32710         5.17691        -1.54338
C         -0.02264         6.02713        -1.48850
C          1.25910         5.16209        -1.65678
C          2.57570         5.85571        -1.50543
C          3.88087         5.09399        -1.31766
C          5.14564         5.84247        -1.01113
C          6.43737         5.17286        -0.52041
C          6.92308         5.51057         0.90826
C          8.40444         5.00253         1.09441
C         -7.34575         7.22171         0.72296
C         -6.14596         8.03410         0.42228
C         -4.97345         7.39427        -0.26056
C         -3.58393         7.99041         0.02396
C         -2.45061         6.97091        -0.03412
C         -1.09053         7.51591         0.35493
C          0.13286         7.00985        -0.32750
C          1.36264         7.89844        -0.38604
C          2.65490         7.15859        -0.71942
C          3.86856         7.96690        -1.14269
C          5.06772         7.32403        -1.01945
C          6.45126         8.04909         0.61955
C          6.78529         6.95876         1.34169
C         -5.91678         9.25522         1.24758
C         -4.68824         9.61190         1.64312
C         -3.51706         8.68375         1.41294
C         -2.16911         9.35088         1.59303
C         -1.03646         8.79107         1.12052
C          0.33234         9.25845         1.56303
C          1.44805         9.09248         0.53222
C          2.76318         9.74863         0.85962
C          3.75711         9.27416         1.66751
C          5.09907         9.92138         1.66177
C          6.25672         9.39787         1.22070
C        -11.27398        -0.52281         0.66216
C        -10.18356        -1.36525         0.09776
C         -8.93423        -0.64585        -0.28820
C         -7.63871        -1.36363        -0.04090
C         -6.45757        -0.68642        -0.67618
C         -5.24857        -1.51190        -1.02005
C         -3.95595        -0.82952        -1.56486
C         -2.69105        -1.34443        -0.81403
C         -1.40888        -0.81220        -1.56666
C         -0.12688        -1.43079        -0.88035
C          1.20610        -0.77149        -1.25756
C          2.44672        -1.40321        -0.59927
C          3.72465        -0.72650        -1.09157
C          5.01784        -1.48234        -1.00699
C          6.31105        -0.72155        -0.86986
C          7.61537        -1.44480        -0.72796
C          8.86932        -0.68604        -0.35466
C         10.16250        -1.43232         0.08388
C         11.22040        -0.57790         0.69916
C        -10.09373        -2.83432         0.35312
C         -8.92951        -3.53380         0.38055
C         -7.62653        -2.80155         0.35047
C         -6.26365        -3.50541         0.39052
C         -5.21699        -2.95316        -0.59181
C         -3.88279        -3.73442        -0.72111
C         -2.63822        -2.86727        -0.49529
C         -1.34635        -3.63079        -0.42854
C         -0.16185        -2.99254        -1.14020
C          1.20662        -3.67828        -0.97975
C          2.48892        -2.90192        -0.89558
C          3.78726        -3.64991        -0.66513
C          5.05262        -2.85893        -0.35190
C          6.33359        -3.69440        -0.63074
C          7.64695        -2.95436        -0.68932
C          8.89239        -3.65119        -0.08726
C          9.97035        -2.81861         0.43212
C         -8.95654        -5.06218         0.41791
C         -7.61679        -5.73328         0.70099
C         -6.41065        -5.05677         0.06132
C         -5.06203        -5.70704         0.47818
C         -3.79862        -5.01930         0.10918
C         -2.53927        -5.81487         0.02463
C         -1.29854        -5.11853        -0.27169
C         -0.08703        -5.76671        -0.20491
C          1.19923        -5.21038        -0.79477
C          2.42857        -5.72564        -0.02330
C          3.76322        -5.09334        -0.29314
C          4.98317        -5.62821         0.47783
C          6.31089        -5.12233        -0.12419
C          7.56210        -5.73401         0.40973
C          8.71935        -5.02755         0.45056
C         -7.56213        -7.00935         1.13959
C         -6.25800        -7.75007         1.38728
C         -5.15114        -7.21741         0.43972
C         -3.80360        -7.85837         0.72410
C         -2.56838        -7.16152         0.30472
C         -1.32342        -7.90356         0.56478
C         -0.02644        -7.14304         0.33362
C          1.20032        -7.94315         0.21866
C          2.45088        -7.18050         0.29294
C          3.75932        -7.90956         0.06915
C          4.94826        -7.15132         0.65967
C          6.21415        -7.90755         0.86728
C          7.57200        -7.19842         0.86702
C         -6.29604        -9.25845         1.16835
C         -5.17735        -9.96960         0.92430
C         -3.81701        -9.34562         0.89971
C         -2.59362       -10.17153         0.49877
C         -1.28327        -9.38440         0.51680
C         -0.07473       -10.02429         0.46734
C          1.19961        -9.31847         0.38669
C          2.47167       -10.01406         0.50048
C          3.69274        -9.37164         0.46432
C          4.97933       -10.04573         0.54072
C          6.15747        -9.37773         0.64483
O         -3.89981        -1.14698        -2.94427
H         -4.54819        -0.56742        -3.40340
O          5.33366        -7.52857         2.01207
O          9.89437        -0.96124        -1.29392
O          0.72387         8.42704         2.68844
H          0.39682         7.51401         2.49227
O         -6.97422         0.07441        -1.82006
O          6.52230         0.76809         1.13455
O          3.75039         9.25372        -1.54646
H          2.79255         9.50347        -1.56617
O          2.00807         5.63745        -2.81904
O          7.16979        -0.88826        -2.02580
O         -7.25185         3.12938         1.87193
O          4.84105         5.27877        -2.38829
O         -2.62415         5.66339         0.54928
O         -5.93794        -7.46778         2.76314
H         -5.05274        -7.86674         2.95129
O         -2.51095         1.90588         0.14979
H         -2.54342         1.09282         0.70709
O         -5.72174        -2.59946        -1.89361
O         -5.01200         3.34250         0.59527
O          1.41935        -0.31052        -2.59884
O         -9.83350        -1.04858        -1.33934
O         -1.47310        -1.25583        -2.90676
H         -1.07058        -0.56531        -3.48266
O         -5.83546         8.31082        -1.00492
O         -4.81595         1.27235        -2.49059
O          3.94865        -4.69982        -1.66488
O         -0.50828        -3.33253        -2.48992
H          0.25031        -3.11300        -3.07537
O         -7.56777        -1.72671         1.36567
O         -0.20169         6.48921         0.98024
O         -3.60447        -8.46598         2.05396
O         -4.30348        -5.07590         1.49954
O          1.10062         9.24372        -0.88780
O         -0.59825        -7.29436         1.68374
O          4.33975        -1.31984        -2.27322
O         -1.38549         4.69253        -2.92776
O          6.08663         4.71554         1.77785
H          6.04062         5.13669         2.66068
O          2.32939        -6.14660         1.35970
O         -6.52031        -5.21384        -1.30261
O          7.28716         3.07625        -1.53377
O          1.96019        -3.27599        -2.18665
O          2.81941         3.53833         0.27883
O          4.74299         2.23553         0.71814
O         -8.05450         0.83740         1.31305
O         -6.25930         5.76582        -1.65238
O         -3.29819         8.95886        -0.99519
H         -4.16653         9.25718        -1.35819
O         -2.81628       -10.72139        -0.80829
H         -2.95601        -9.99008        -1.44465
O          8.87427         0.35631         1.77037
H          7.95763         0.32064         2.13560
O          8.63445        -3.53642        -1.54175
O         -2.81590        -0.69366         0.47718
H         -2.67370        -1.35252         1.19469
O         -4.22644         4.69171        -2.63233
O          9.32478         5.91212         0.50307
H          9.03329         6.05260        -0.42802
O         -0.11422         6.90572        -2.61783
H         -0.25024         6.35512        -3.42085
O          2.43088        -1.21270         0.82294
H          1.49041        -1.13873         1.12338
O          6.30744        -4.81782        -1.54081
O         -3.61918         7.61646         2.38743
H         -3.50495         7.99467         3.28342
O          3.94567        -8.08546        -1.31295
O         -0.80123         1.14200        -2.91856
O         -5.47435        -7.57226        -0.91417
H         -5.97299        -6.80639        -1.33590
O          5.11150        -2.51896         1.05047
H          4.92901        -3.32494         1.59980
O          8.47491        -7.91840         0.02114
H          8.20560        -7.78786        -0.91196
O         10.13621         1.68632        -1.35713
H         10.82107         2.35770        -1.55138
O         -9.84054         5.88631         0.33650
H         -9.73662         6.00116        -0.63061
O          0.29738         3.42542        -0.19280
O         -1.95248        -3.05996         0.79723
O          3.02679         6.61642         0.60735
H          2.43841         5.85821         0.82898
O          6.28567         8.03070        -0.79547
O          7.46155         5.59494        -1.42992
H          7.15894         5.37812        -2.33873
O         -0.17798        -1.17301         0.54131
H         -0.82001        -1.79525         0.97187
O        -10.45891         1.61713        -1.46574
H        -10.45972         0.67740        -1.77718
O          3.58583         8.26664         2.54858
H          2.62677         8.02708         2.57263
O         -9.96519        -5.51871         1.31687
H         -9.69112        -5.30339         2.23157
O          4.90759        -5.05165         1.80574
H          4.93189        -5.80048         2.45407
O         -5.73042        -3.28232         1.68359
H         -6.44437        -3.31075         2.35390
O         -2.85883         2.60588        -3.35798
H         -3.08003         3.44945        -3.81233
O          1.29820        -5.80681        -2.10340
H          2.04686        -5.36287        -2.56860
O         -3.77362        -4.20712        -2.07269
H         -4.36133        -3.64655        -2.63676
H         12.07978        -1.09474         1.15394
H         12.04730         1.33833         1.04547
H         10.67840         3.42094         1.15734
H          8.61542         4.98902         2.19775
H          6.90369         7.10712         2.42770
H          7.15223        10.04438         1.24345
H          5.11513        10.97230         2.00067
H          3.00504        10.62814         0.24662
H          0.28770        10.31491         1.92501
H         -2.11118        10.26146         2.21174
H         -4.53003        10.53377         2.22467
H         -6.78986         9.88696         1.47377
H         -8.17460         7.71853         1.25100
H         -8.79995         5.16378         1.95271
H        -10.87583         3.66338         0.38763
H        -12.07845         1.38824         1.10085
H        -12.11318        -1.04555         1.14761
H        -11.04055        -3.39154         0.44231
H         -9.26957        -5.39905        -0.60867
H         -8.49607        -7.49989         1.46215
H         -7.26670        -9.77643         1.21685
H         -5.23596       -11.05652         0.76046
H         -2.49779       -11.04551         1.19378
H         -0.05058       -11.12491         0.46885
H          2.44545       -11.09651         0.70440
H          4.98822       -11.14514         0.47540
H          7.11001        -9.92714         0.64204
H          7.99923        -7.25048         1.90265
H          9.61740        -5.50792         0.87044
H         10.52471        -3.19847         1.30458
