         349
 CSIRO Nanostructure Databank - Neutral Graphene Oxide Data Set
C          1.41448         2.14691        -1.57316
C          1.47831         3.49260        -1.59387
C          2.62245         1.28361        -1.36227
C          2.71906         4.21223        -1.32460
C          1.70313         6.41129        -1.91725
C          1.69324         7.80378        -1.85510
C          2.76016         5.65940        -1.38432
C          2.73628         8.52569        -1.23978
C          1.59289        10.72558        -1.54868
C          1.55734        12.12395        -1.43407
C          2.68934         9.96956        -1.09627
C          2.53620        12.83690        -0.74952
C          1.44619        15.03098        -1.21615
C          1.48237        16.40642        -1.28005
C          2.55493        14.28634        -0.72445
C          2.65036        17.11533        -0.90587
C          2.71721        18.53282        -1.07436
C          3.82347         2.05033        -0.85989
C          3.83380         3.48587        -0.91072
C          4.93335         1.34158        -0.43602
C          5.13479         4.19413        -0.61559
C          3.88665         6.36874        -0.81083
C          3.85950         7.81609        -0.72594
C          4.95173         5.65370        -0.27281
C          4.98091         8.52976        -0.21287
C          3.77765        10.64553        -0.46809
C          3.62310        12.06689        -0.11186
C          4.95118         9.96331        -0.09699
C          4.80643        12.79029         0.50193
C          3.69207        14.98716        -0.25790
C          3.76427        16.39852        -0.37668
C          4.77081        14.29319         0.48762
C          4.98454        17.10849        -0.07297
C          3.88464        19.20287        -0.82723
C          5.04524        18.49978        -0.37362
C          6.11645         1.98959         0.04623
C          5.97942         3.44424         0.43297
C          7.30770         1.32035         0.18640
C          7.31158         4.13867         0.61702
C          6.03593         6.36931         0.40642
C          6.13145         7.82785         0.24235
C          7.28535         5.60365         0.83460
C          7.31593         8.50875         0.57404
C          6.12785        10.67133         0.35537
C          6.11779        12.09201         0.55005
C          7.33319         9.94860         0.56887
C          7.30374        12.79782         0.81522
C          6.01413        15.04172         0.89226
C          6.14440        16.44673         0.42665
C          7.23006        14.22680         1.38923
C          7.37401        17.13221         0.51250
C          6.28312        19.17217        -0.27135
C          7.43001        18.50046         0.11402
C          8.53719         1.99954         0.51012
C          8.48125         3.44662         0.71625
C          9.74060         1.31786         0.48261
C          9.71851         4.16325         1.10729
C          8.54732         6.36063         0.88285
C          8.53561         7.77632         0.83339
C          9.76891         5.64966         1.02120
C          9.76848         8.48713         0.93860
C          8.55460        10.65366         0.79077
C          8.54529        12.08064         0.88421
C          9.78474         9.92223         0.91565
C          9.80008        12.75482         1.06368
C          8.55827        15.00494         1.29145
C          8.60247        16.43533         0.87754
C          9.84895        14.23199         1.23815
C          9.81839        17.09727         0.83309
C          8.74056        19.23217         0.00766
C          9.82838        18.61325         0.87833
C         11.01710         1.98465         0.55689
C         11.01920         3.40234         1.00116
C         12.18661         1.37928         0.18303
C         12.24516         4.17313         0.95449
C         10.98781         6.33649         1.11913
C         10.99358         7.76304         1.04952
C         12.25780         5.57695         1.49353
C         12.23152         8.47789         1.00431
C         11.02095        10.61710         1.01487
C         11.00046        12.04730         1.05501
C         12.26363         9.88190         1.01303
C         12.27477        12.78713         1.25612
C         11.10932        14.93788         0.88818
C         11.08390        16.38752         0.77144
C         12.30399        14.23876         0.92920
C         12.26312        17.06833         0.49288
C         11.14460        19.24229         0.54134
C         12.30026        18.51801         0.35619
C         13.43140         2.19962        -0.05392
C         13.48433         3.41816         0.83661
C         14.73509         1.46738        -0.11078
C         14.78828         4.12761         1.06251
C         13.54383         6.28030         1.12038
C         13.46738         7.70536         0.76436
C         14.75224         5.60973         1.09345
C         14.75288         8.44111         0.50291
C         13.54231        10.57393         0.99248
C         13.56976        12.03000         1.29962
C         14.72811         9.91178         0.71260
C         14.89428        12.80175         1.22344
C         13.56213        14.88540         0.62901
C         13.49187        16.29943         0.08352
C         14.76851        14.20602         0.63721
C         14.76788        17.09268         0.28811
C         13.52624        19.20459         0.04395
C         14.75304        18.54633        -0.03099
C         15.95098         2.12532         0.06079
C         16.03528         3.47280         0.60943
C         17.15310         1.51094        -0.40604
C         17.24914         4.11241         0.84323
C         16.03113         6.28961         1.01174
C         16.03356         7.72490         0.76712
C         17.24393         5.56177         1.13726
C         17.19681         8.44177         0.68869
C         15.97108        10.63016         0.54156
C         16.01658        12.00279         0.59893
C         17.15502         9.81940         0.03296
C         17.23581        12.73648         0.31943
C         16.00962        14.86842         0.27729
C         16.04847        16.35356         0.18961
C         17.20090        14.18028         0.20890
C         17.20289        17.02997        -0.53817
C         15.97969        19.22012        -0.19292
C         17.22243        18.53340        -0.34773
C         18.39975         2.11174        -0.20126
C         18.46420         3.33250         0.59086
C         19.59938         1.50364        -0.66136
C         19.69713         3.60884         1.16303
C         18.46000         6.32639         1.33906
C         18.40769         7.85023         1.34874
C         19.67079         5.79538         1.76012
C         19.72694         8.48557         0.97044
C         18.47074        10.58543         0.13087
C         18.43738        12.05856         0.20356
C         19.73638         9.89158         0.51962
C         19.68896        12.79093         0.28843
C         18.46414        14.85925        -0.29371
C         18.52129        16.36767        -0.19798
C         19.69066        14.17711         0.20637
C         19.71187        17.05875        -0.22021
C         18.42317        19.18443        -0.50640
C         19.64205        18.41531        -0.95766
C         20.86678         2.03565        -0.33951
C         20.93320         3.08287         0.65910
C         22.08130         1.56797        -0.87549
C         22.17241         3.65255         0.97694
C         20.93668         6.48740         1.66777
C         20.90670         7.88024         1.27799
C         22.16613         5.83046         1.66135
C         22.22300         8.61669         1.41902
C         20.91049        10.71418         1.05744
C         20.91012        12.10067         0.51483
C         22.18796         9.98332         0.83656
C         22.13940        12.79858         0.47112
C         20.86157        14.95612         0.70291
C         20.94412        16.38416         0.17535
C         22.14886        14.18033         0.56390
C         22.15514        16.99986         0.38852
C         20.86205        19.30548        -1.15958
C         22.10146        19.19494        -0.62196
C         23.30956         2.26047        -0.67138
C         23.35962         3.43911         0.20556
C         24.46215         1.79864        -1.30541
C         24.51067         4.25649         0.30270
C         23.38704         6.42161         1.17092
C         23.41159         7.79934         1.00296
C         24.58628         5.60763         0.86494
C         24.62868         8.51532         0.71169
C         23.31249        10.52991         0.00576
C         23.38971        12.05869         0.12789
C         24.62945         9.84920         0.36383
C         24.69941        12.78191         0.18244
C         23.41252        14.85320         0.91049
C         23.43076        16.29374         0.58178
C         24.71991        14.13928         0.83376
C         24.50346        16.77197        -0.13028
C         23.37060        19.86565        -0.94482
C         24.49096        19.02753        -0.88557
C         25.64463         2.63222        -1.38014
C         25.67226         3.90977        -0.56157
C         26.92618         2.06511        -1.85186
C         27.05092         4.50605        -0.30639
C         25.80769         6.27003         0.91689
C         25.86590         7.73968         0.99999
C         27.09855         5.47399         0.93384
C         27.18616         8.42114         0.84896
C         25.91371        10.54076         0.05327
C         26.03935        12.08190        -0.01133
C         27.18241         9.79681         0.26852
C         27.06455        12.65909         0.98533
C         25.98569        15.03116         0.82913
C         25.86208        16.12066        -0.27292
C         27.28660        14.18338         0.70616
C         27.09584        17.05629        -0.28380
C         25.85042        19.33657        -0.69888
C         27.01618        18.52158        -0.49732
C         28.11934         2.42539        -1.31033
C         28.15533         3.33378        -0.07778
C         29.35771         1.85051        -1.79155
C         29.53287         3.99111         0.14926
C         28.39508         6.27937         0.77496
C         28.44282         7.64724         0.68082
C         29.63830         5.50640         0.62611
C         29.68152         8.38756         0.44854
C         28.43432        10.55405         0.51448
C         28.33341        11.83995         0.94815
C         29.69066         9.81772         0.34835
C         30.01528        12.87047         0.07295
C         28.46569        14.87323         0.04895
C         28.29506        16.34218        -0.30537
C         29.64437        14.10282        -0.51528
C         29.57718        17.01858        -0.40139
C         28.17231        19.36631        -0.59832
C         29.50908        19.11122        -0.29384
C         30.57455         2.33025        -1.41380
C         30.70845         3.46555        -0.53670
C         31.93480         4.11259        -0.39530
C         30.89051         6.21039         0.33430
C         30.89344         7.66270         0.27924
C         32.02278         5.45352         0.02631
C         32.08039         8.38316        -0.00473
C         30.87031        10.49811        -0.05329
C         30.83969        11.89829        -0.52796
C         32.05971         9.75200        -0.20573
C         31.50574        12.26823        -1.71150
C         30.42891        14.45611        -1.63954
C         30.57206        16.79865        -1.35131
C         31.33773        13.55218        -2.22085
C         31.67375        17.64889        -1.60105
C         30.63935        19.77358        -0.85217
C         31.72555        19.02540        -1.30683
O         30.40927        15.71611        -2.24373
O         29.80734        18.02467         0.54945
O         23.94974        12.71639        -1.08068
O         19.74746         4.48747         2.24651
O         24.16319        17.69060        -1.11356
O         25.33154         3.98457        -1.99080
O          9.33834        14.75692         2.50995
O         24.03257        14.24987         2.12302
O         22.22986         4.50338         2.08828
O         15.58634        16.88540         1.48313
O         26.62278         9.89223        -1.07989
O         14.16278         3.34564         2.14898
O         12.87844        12.39636         2.55029
O         19.44285        10.09916        -0.89037
O         13.97118         7.95433        -0.62590
O         29.49150        12.52826         1.33807
O         29.77534         4.36502         1.52018
O         10.31335         3.61072         2.32850
O         22.31713        18.36343         0.48613
O          4.89497        14.88435         1.83341
O          3.76332        12.24963         1.36317
O         26.58887         8.30752         2.17725
O         28.34163        14.76090         1.51455
O          6.27280         5.98633         1.83700
O         27.77351         2.58952         1.01351
O          5.27626         3.46927         1.69612
H          5.42104         4.36470         2.09334
O          9.49381        18.98500         2.24991
H         10.07066        18.47184         2.85424
O         26.03159        15.75684         2.05749
H         25.43932        15.29851         2.70016
O          5.92997         4.17535        -1.84979
H          5.37779         4.55335        -2.56661
O         20.66597        10.86857         2.49792
H         21.15952        10.14446         2.96246
O         27.45986         5.24110        -1.44747
H         26.82985         5.00832        -2.17696
O         12.24587         5.47660         2.95728
H         11.55866         4.80339         3.18720
O         16.93191        16.79872        -1.96035
H         17.64760        17.29321        -2.44216
O         26.54866        12.45720        -1.29891
H         25.82991        12.32159        -1.95467
O         18.23661         8.22340         2.77062
H         18.93549         7.76789         3.28871
O         15.34883        13.01619         2.59042
H         14.53579        13.10479         3.14309
O         18.44860        14.59565        -1.74977
H         17.72053        15.16418        -2.11640
O          9.17779        19.18699        -1.35933
H          8.44347        19.49716        -1.92781
O         16.90151         9.60081        -1.38047
H         17.77923         9.47522        -1.80895
O         13.25148         2.78319        -1.40659
H         13.26217         2.04518        -2.05250
O         20.64627        15.12293         2.16026
H         20.57670        14.22819         2.55895
O          2.32003         0.18823        -0.48528
H          2.16592         0.55066         0.41118
O         13.39979        16.17531        -1.38013
H         12.52146        15.79713        -1.59554
O         19.33272        17.99730        -2.35443
H         20.04767        17.38870        -2.64044
O          7.02984        13.98709         2.79655
H          6.05599        13.98452         2.95699
O         26.48478        12.57545         2.30304
H         27.10554        13.01251         2.92572
O         25.83269        15.44024        -1.55225
H         25.57460        16.09492        -2.23591
O         27.08848         4.75192         2.15727
H         27.55851         3.87080         2.03701
O         23.04227        10.22518        -1.39606
H         23.44796        10.94562        -1.92977
O         22.35921         8.76308         2.90811
H         23.29326         9.00456         3.09553
H          0.45687         1.63540        -1.74994
H          0.56090         4.07041        -1.77364
H          2.88537         0.81646        -2.35677
H          0.85067         5.90628        -2.39084
H          0.83345         8.33468        -2.28420
H          0.75284        10.23163        -2.05342
H          0.71916        12.65200        -1.90770
H          0.53165        14.50980        -1.52674
H          0.61186        16.96561        -1.65145
H          1.83031        19.06629        -1.44498
H          4.91771         0.24263        -0.49911
H          3.95752        20.28654        -0.99763
H          7.35945         0.24808        -0.05900
H          6.33885        20.23865        -0.53853
H          9.73557         0.23994         0.26098
H          8.59972        20.30683         0.31732
H         12.17205         0.33112        -0.15529
H         11.17108        20.33909         0.45470
H         14.74037         0.46255        -0.56263
H         13.48378        20.29509        -0.09879
H         17.09232         0.54699        -0.93271
H         15.97697        20.31979        -0.25612
H         19.53196         0.61241        -1.30224
H         18.48194        20.27856        -0.40185
H         22.07384         0.71218        -1.56590
H         20.74287        19.99621        -2.00862
H         24.46160         0.81601        -1.79875
H         23.45972        20.95857        -1.01713
H         26.89045         1.33798        -2.67853
H         26.04855        20.41953        -0.66832
H         29.29112         1.02328        -2.51453
H         27.99721        20.34951        -1.06345
H         31.49335         1.88941        -1.82864
H         32.83664         3.63680        -0.80915
H         33.00080         5.94440        -0.07031
H         33.03467         7.85160        -0.11308
H         32.98765        10.27096        -0.48492
H         32.15660        11.55065        -2.22936
H         31.89243        13.87244        -3.11201
H         32.45948        17.25075        -2.25956
H         30.59677        20.84990        -1.07404
H         32.60107        19.57508        -1.68462
