         280
 CSIRO Nanostructure Databank - Neutral Graphene Oxide Data Set
C         30.05653        31.55699        -0.02806
C         30.10898        32.75479         0.28561
C         30.35445        36.00805         0.32156
C         30.40870        37.23613         0.39310
C         30.59054        40.47653         0.37066
C         30.55484        41.69491         0.54417
C         32.36555        28.79918        -1.11212
C         31.31075        29.36131        -0.81625
C         32.43235        31.54577        -0.74061
C         31.05694        30.80126        -0.78263
C         32.49552        32.88780         0.00355
C         31.28778        33.57579         0.60259
C         32.69208        35.75628         0.89991
C         31.24918        35.04287         1.01589
C         32.78796        37.28888         0.96134
C         31.54661        38.12304         0.69185
C         32.97670        40.27372         0.54433
C         31.67080        39.49681         0.07545
C         32.96357        41.73588         0.88352
C         31.60553        42.51709         1.22493
C         33.05266        44.42538         0.83696
C         31.93498        43.90994         0.75409
C         35.22208        27.16246        -1.02852
C         34.99932        28.57779        -1.34042
C         33.71424        29.33585        -1.31748
C         34.94693        31.44338        -0.77725
C         33.73951        30.80728        -0.95105
C         34.89142        32.77688        -0.12664
C         33.70694        33.71542        -0.41413
C         35.27441        35.72324         0.29572
C         33.89239        35.01985         0.36567
C         35.37548        37.15458         0.76972
C         34.10413        37.96624         0.51089
C         35.44256        40.11160         1.46168
C         34.16064        39.43092         0.99980
C         35.48689        41.62896         1.61769
C         34.23517        42.42067         1.36593
C         35.53510        44.61617         1.51901
C         34.43673        43.87405         0.79920
C         35.85264        46.03107         1.25550
C         37.50772        27.16793        -0.16830
C         36.26329        26.55933        -0.75295
C         37.62417        28.52313        -0.98205
C         36.35216        29.30201        -1.21078
C         37.60900        31.54515        -1.09331
C         36.32948        30.74672        -0.68403
C         37.70522        33.05348        -0.95564
C         36.56128        33.92875        -1.36856
C         37.71326        35.97353        -0.47873
C         36.40444        35.26400        -0.61107
C         37.91832        37.17827         0.39759
C         36.68629        37.91650         0.87130
C         38.09912        40.08964         1.20264
C         36.76657        39.34956         1.34940
C         38.12059        41.59874         1.41344
C         36.83959        42.33868         1.68643
C         38.17617        44.56855         1.80270
C         36.82321        43.85635         1.79591
C         38.18847        46.12292         1.85329
C         36.82428        46.62806         1.75569
C         40.05328        24.37942        -0.33760
C         38.97072        24.98969        -0.65871
C         40.11098        27.08765         0.00645
C         38.79027        26.35238        -0.10259
C         40.07754        28.60852        -0.06170
C         39.01235        29.21357        -0.99002
C         40.13616        31.49311        -0.52414
C         38.90547        30.76345        -1.01710
C         40.13106        32.98802        -0.44222
C         38.89303        33.71440        -0.83260
C         40.25674        35.90643        -0.92097
C         38.93998        35.21015        -0.91694
C         40.49852        37.23501        -0.21034
C         39.23411        37.90374         0.31771
C         40.22102        40.25033        -0.26703
C         39.29609        39.39480         0.59572
C         40.22655        41.74780        -0.04816
C         39.50293        42.28665         1.19316
C         40.60819        44.65807         0.79957
C         39.42243        43.84616         1.33546
C         40.40651        46.15045         0.55950
C         39.38594        46.89640         1.41826
C         40.20758        48.98174         0.41228
C         39.37508        48.31251         1.02433
C         42.53482        24.42689         0.46176
C         41.34555        24.83189        -0.15238
C         42.70472        27.11017         0.06059
C         41.41745        26.38238        -0.47804
C         42.68479        28.60692         0.14875
C         41.38086        29.34664         0.00543
C         42.72923        31.52360        -0.23222
C         41.46119        30.76785        -0.49091
C         42.72405        33.02318        -0.10846
C         41.43890        33.74515        -0.31492
C         42.80936        35.84313        -1.14120
C         41.52304        35.09591        -0.95821
C         42.73762        37.35318        -1.37885
C         41.45288        38.06886        -1.04072
C         42.70317        40.32706        -1.19461
C         41.38961        39.57977        -0.98481
C         42.67364        41.82439        -1.01525
C         41.43686        42.53101        -0.50756
C         42.60704        44.71990        -0.93500
C         41.63388        43.95964        -0.04787
C         42.51537        46.21429        -1.01226
C         41.28696        46.89286        -0.41400
C         42.59568        49.02050        -0.57033
C         41.16346        48.73769        -0.67381
C         43.55883        24.97004         0.93925
C         44.92274        27.20674         1.49233
C         43.74375        26.42765         0.98662
C         45.18597        28.59647         0.83948
C         43.85861        29.37102         0.72782
C         45.23545        31.51159         0.24471
C         43.89922        30.83869         0.42205
C         45.29163        32.94037        -0.28771
C         44.04332        33.77141        -0.25915
C         45.38407        35.88543        -1.09094
C         44.09173        35.22003        -0.66461
C         45.35262        37.39613        -1.31930
C         44.02735        38.14327        -1.46741
C         45.26719        40.35365        -1.25010
C         43.98932        39.59421        -1.15248
C         45.26618        41.80765        -0.84314
C         43.96925        42.54665        -0.80519
C         45.14833        44.79152        -0.68505
C         43.95835        44.01057        -1.26207
C         45.13739        46.28647        -1.02835
C         43.83154        46.99142        -1.20479
C         43.58950        48.41885        -0.98398
C         47.26887        27.39582         2.19665
C         46.22178        26.76752         2.01955
C         47.45646        28.86082         2.23642
C         46.27098        29.50099         1.53282
C         47.62548        31.72766         1.17497
C         46.42936        30.86310         0.87905
C         47.70438        33.13254         0.53129
C         46.60272        33.67000        -0.34850
C         47.95573        35.91032        -0.62091
C         46.65813        35.14796        -0.77736
C         47.86502        37.42422        -0.55482
C         46.59946        38.16698        -0.92253
C         47.95230        40.46994        -1.29766
C         46.61425        39.64075        -1.30543
C         47.81908        41.84119        -0.61148
C         46.55400        42.64398        -1.00610
C         47.71584        44.81226        -0.04929
C         46.41786        44.05023        -0.36276
C         47.45826        46.23799        -0.29039
C         46.44338        46.83462        -0.64568
C         50.08369        28.98600         2.23443
C         48.76038        29.58772         2.54497
C         50.18853        31.63270         1.29859
C         48.85295        31.05578         1.74397
C         50.25674        33.11594         0.95380
C         48.99599        33.88627         0.62732
C         50.27968        36.07944         0.52362
C         49.18153        35.22458        -0.07247
C         50.43960        37.47234        -0.07856
C         49.18263        38.16264        -0.61917
C         50.45781        40.44916        -0.55794
C         49.18818        39.65147        -0.84274
C         50.42197        41.94039        -0.62799
C         49.08957        42.59802        -0.32040
C         50.36019        44.70589        -0.06738
C         49.01978        44.10303         0.00701
C         51.18056        29.57338         2.26066
C         52.56015        31.81600         1.85554
C         51.50516        30.83679         1.60601
C         52.54790        33.05088         1.81142
C         51.53584        33.92361         1.20472
C         52.57190        36.32553         1.31468
C         51.42289        35.41223         1.28110
C         52.56920        37.54554         1.11115
C         51.68885        38.29727         0.18948
C         52.74824        40.65945         0.27829
C         51.52632        39.78951         0.35610
C         52.74629        41.89689         0.21663
C         52.02966        42.92573        -0.54421
C         51.45822        44.14543         0.00111
O         35.94350        33.68623        -2.39389
O         49.00231        35.36885        -1.49211
O         45.92729        40.01188        -2.52393
O         40.04040        46.34669        -0.86922
O         46.18901        30.72289        -0.54966
O         41.71950        37.61239        -2.38283
O         36.50053        30.52479         0.73949
O         43.75869        27.05637         2.30353
O         44.13196        34.84862         0.73988
O         39.21192        39.59647         2.02220
O         35.56603        36.05272         1.68368
O         50.73654        41.16980        -1.80855
O         39.49015        35.82039        -2.13778
O         39.41747        41.17054        -1.09577
O         39.14790        44.09141         2.75535
O         37.11580        28.76461        -2.32982
O         48.34023        41.86203         0.72356
O         43.21300        27.91738        -1.03619
O         34.49713        39.53213         2.39877
O         39.48754        26.53149         1.18484
O         35.89069        44.25426         2.85554
O         41.75597        40.04248        -2.29784
O         45.44294        44.38058         0.67081
O         51.52794        37.61900        -1.05489
O         40.47234        29.26286         1.15725
O         41.87465        44.21731         1.36447
O         42.39431        31.02445        -1.57039
O         38.86232        37.07356         1.47887
O         47.97130        34.07247         1.63300
O         34.62085        42.11570         2.70225
O         44.59811        42.08217         0.42264
O         33.52286        34.96800         1.77491
O         44.61435        46.57659        -2.34012
O         50.93536        30.86847         0.29416
O         50.28465        35.97358         1.98307
O         46.96483        37.92633         0.47900
O         37.65175        41.81392         2.78020
O         46.12254        32.91312        -1.48239
O         46.34026        29.46919         2.97122
O         34.35888        28.98414        -2.56495
O         49.45554        38.69814        -1.93712
O         41.98583        33.57976         1.01975
O         38.33583        31.16489        -2.29858
O         41.74507        42.46548        -1.92272
O         32.05395        37.96191         2.02428
O         32.22737        32.80040         1.41981
O         46.13733        35.24658        -2.14180
O         42.20945        35.08152        -2.23832
O         39.87363        32.15939         0.74319
O         36.79787        36.30319        -1.57188
O         33.20684        41.30198        -0.49201
O         42.09209        45.37635        -2.12589
O         43.61049        30.33796         1.76734
O         44.85315        37.73193        -2.62880
O         48.00970        31.89533         2.56294
O         31.55654        31.50644        -1.91856
O         39.16793        46.60280         2.79649
O         48.27918        44.39804         1.20947
O         36.84243        38.27384         2.29038
O         51.21958        33.40747        -0.10805
O         33.45215        34.01018        -1.78941
H         34.28955        34.08094        -2.31387
O         40.67662        48.94606        -1.92950
H         39.73257        48.69325        -1.97561
O         39.60715        28.87419        -2.26361
H         38.95138        29.10748        -2.96362
O         40.36086        41.87372         2.25943
H         39.95389        42.17665         3.10340
O         52.46333        43.07418        -1.82823
H         52.60432        42.19301        -2.23603
O         35.68604        33.05861         0.77419
H         36.40073        31.39035         1.20896
O         34.10601        37.98259        -0.93822
H         33.29334        38.43635        -1.29037
O         31.45180        42.48534         2.60443
H         30.65110        42.98007         2.87168
O         34.88151        43.73317        -0.54951
H         34.15032        43.36655        -1.09277
O         41.30202        36.92171         0.95849
H         40.70022        36.71420         1.71248
O         31.78183        39.30452        -1.33402
H         31.88137        40.18950        -1.75185
O         50.96060        39.94600         1.66666
H         51.60689        39.63182         2.33462
O         30.90707        35.07044         2.38815
H         31.57294        34.54042         2.87824
O         48.76283        29.90087         3.91295
H         47.84259        30.09641         4.19713
O         37.19247        27.61190         1.13899
H         37.75462        27.13937         1.79387
O         48.22063        40.80182        -2.67029
H         48.55589        39.99504        -3.12477
O         46.72021        42.97177        -2.39467
H         46.94029        42.15231        -2.90344
O         44.09931        43.92569        -2.67779
H         43.52199        44.61117        -3.09194
O         45.67914        28.21932        -0.44632
H         45.85048        29.02357        -0.99328
O         41.39233        26.47204        -1.89141
H         42.14746        27.02503        -2.20313
