         344
 CSIRO Nanostructure Databank - Neutral Graphene Oxide Data Set
C          1.32054         1.94823        -0.97585
C          1.30115         3.36618        -1.04712
C          2.35729         1.27453        -0.39270
C          2.41432         4.12574        -0.63600
C          1.13972         6.34218        -0.47067
C          1.12492         7.68250        -0.28306
C          2.41203         5.63305        -0.86421
C          2.33845         8.48682        -0.24168
C          1.12536        10.65729        -0.18048
C          1.13922        12.03300        -0.09639
C          2.32174         9.88045        -0.13506
C          2.35177        12.79748        -0.05745
C          1.14271        14.99162        -0.20680
C          1.15587        16.36950        -0.24733
C          2.34969        14.23563        -0.12080
C          2.37828        17.08999        -0.19011
C          2.40725        18.51958        -0.23082
C          3.52049         1.99367         0.22055
C          3.54025         3.46402        -0.14291
C          4.82338         1.30454        -0.13393
C          4.77376         4.19538         0.14316
C          3.61338         6.36363        -0.30247
C          3.60010         7.76443        -0.20124
C          4.82698         5.65682        -0.10795
C          4.84105         8.47924        -0.09138
C          3.57867        10.62210         0.27376
C          3.59197        12.10086        -0.05739
C          4.85674         9.90039        -0.05713
C          4.80446        12.79528        -0.13503
C          3.58952        14.93555        -0.07064
C          3.60019        16.36668        -0.09132
C          4.83040        14.21803        -0.05938
C          4.83294        17.07463        -0.00836
C          3.59331        19.20337        -0.15953
C          4.84078        18.50454        -0.03105
C          6.04233         1.95133        -0.08113
C          6.06340         3.40555         0.22333
C          7.30203         1.30248        -0.27629
C          7.32993         4.12755         0.06716
C          6.04326         6.33485        -0.11121
C          6.07127         7.76006        -0.18349
C          7.32687         5.57152        -0.33687
C          7.29943         8.47753        -0.27773
C          6.06053        10.59442        -0.17952
C          6.07041        12.07221        -0.52338
C          7.28402         9.87764        -0.26203
C          7.34751        12.79801        -0.15033
C          6.06778        14.91995         0.07700
C          6.06321        16.35885         0.14419
C          7.32241        14.21522         0.10533
C          7.26041        17.07364         0.33225
C          6.05989        19.19600         0.06700
C          7.28218        18.50151         0.25407
C          8.53161         1.98731        -0.15258
C          8.52363         3.43604         0.02491
C          9.78559         1.35972        -0.30464
C          9.76514         4.15911         0.14901
C          8.51941         6.32376         0.13726
C          8.62476         7.72344        -0.38124
C          9.65610         5.54962         0.74507
C          9.68416         8.57030         0.35758
C          8.54571        10.65599        -0.44632
C          8.55259        12.12129        -0.22117
C          9.83609         9.91151        -0.36630
C          9.81115        12.79511         0.01657
C          8.53742        14.89866         0.33548
C          8.49585        16.34575         0.76835
C          9.78732        14.21898         0.27099
C          9.75488        17.10544         0.48023
C          8.51650        19.20323         0.32480
C          9.75970        18.51130         0.39092
C         11.00784         2.08484        -0.24763
C         10.98441         3.51695         0.02404
C         12.24615         1.43848        -0.37727
C         12.23941         4.24048         0.16750
C         10.97522         6.31940         0.75996
C         10.97987         7.81810         0.61473
C         12.24613         5.61513         0.47677
C         12.26770         8.52970         0.46709
C         11.16132        10.65573        -0.35707
C         11.03720        12.10690         0.04403
C         12.27787         9.92609         0.34455
C         12.26903        12.79698         0.22425
C         11.02124        14.91537         0.40093
C         11.03583        16.38424         0.76411
C         12.25285        14.22942         0.33343
C         12.21280        17.11895         0.16313
C         11.00226        19.24583         0.35759
C         12.24289        18.59892         0.26938
C         13.48471         2.13715        -0.26712
C         13.47540         3.55325        -0.01803
C         14.71711         1.45617        -0.35578
C         14.71365         4.26056         0.08421
C         13.46575         6.36216         0.53268
C         13.45593         7.78542         0.65533
C         14.71214         5.67957         0.34309
C         14.72838         8.52536         0.96941
C         13.52252        10.64494         0.37833
C         13.50732        12.09751         0.26421
C         14.71356         9.96453         0.54293
C         14.73800        12.80836         0.38638
C         13.50654        14.92663         0.35189
C         13.50981        16.37348         0.09472
C         14.72685        14.24764         0.40849
C         14.76412        17.12082         0.15635
C         13.48352        19.25180         0.14574
C         14.73256        18.55032         0.08368
C         15.94978         2.13961        -0.22723
C         15.93024         3.54997        -0.05860
C         17.20473         1.42434        -0.21660
C         17.22449         4.26368         0.22739
C         15.93372         6.42737         0.32671
C         15.97009         7.80012         0.52628
C         17.19661         5.74866        -0.14918
C         17.21464         8.53200         0.52834
C         15.97965        10.64792         0.12038
C         15.97492        12.12211         0.41339
C         17.23452         9.92643         0.51655
C         17.20187        12.81472         0.53348
C         15.97965        14.96774         0.41642
C         15.97834        16.41074         0.29092
C         17.19331        14.26755         0.52427
C         17.20889        17.11873         0.21793
C         15.96462        19.23690        -0.00837
C         17.20065        18.54566         0.00915
C         18.44002         2.06986        -0.17065
C         18.45788         3.57110        -0.37033
C         19.68788         1.40280        -0.17387
C         19.70362         4.21794         0.19519
C         18.43461         6.42098         0.40675
C         18.45822         7.78888         0.62181
C         19.60882         5.59908         0.67863
C         19.70166         8.52095         0.78935
C         18.45234        10.66636         0.64297
C         18.42455        12.08804         0.62168
C         19.69339         9.94761         0.76814
C         19.69409        12.83725         0.94211
C         18.44182        14.98875         0.48203
C         18.44297        16.40648         0.28925
C         19.66900        14.28436         0.50920
C         19.67678        17.10226         0.12708
C         18.42928        19.22314        -0.17253
C         19.67874        18.54889        -0.11437
C         20.92035         2.10692        -0.11384
C         20.90344         3.53975         0.18533
C         22.15754         1.45891        -0.27029
C         22.16202         4.24217         0.38316
C         20.94983         6.36244         0.92191
C         20.93173         7.82105         0.80986
C         22.18426         5.63284         0.63342
C         22.17967         8.50321         0.71213
C         20.94297        10.65836         0.68408
C         20.94307        12.07456         0.55432
C         22.17649         9.94940         0.57933
C         22.12380        12.74121         0.22421
C         20.86381        14.96469         0.23072
C         20.87349        16.36982         0.07667
C         22.08565        14.18189        -0.07892
C         22.12001        17.08472        -0.39916
C         20.88341        19.23665        -0.26793
C         22.17064        18.53959         0.07966
C         23.39368         2.15891        -0.21827
C         23.38530         3.57148         0.11245
C         24.61920         1.50673        -0.46210
C         24.60445         4.29498         0.18220
C         23.40806         6.35829         0.67877
C         23.39022         7.78550         0.76822
C         24.63155         5.64499         0.54296
C         24.66980         8.57713         0.92291
C         23.37894        10.64437         0.31631
C         23.36589        12.04104         0.12262
C         24.62636         9.82766         0.04962
C         24.61535        12.77121        -0.02630
C         23.37288        14.88391        -0.36543
C         23.43903        16.36301        -0.05931
C         24.64504        14.14512        -0.20570
C         24.62372        17.02046        -0.80412
C         23.45926        19.21130        -0.33279
C         24.64242        18.51796        -0.54950
C         25.86059         2.19451        -0.48657
C         25.84856         3.65468        -0.28276
C         27.07879         1.56905        -0.76589
C         27.19407         4.38116        -0.03754
C         25.90143         6.33600         0.97053
C         25.92043         7.80327         0.60561
C         27.19208         5.65205         0.67620
C         27.14588         8.43798         0.41360
C         25.93007        10.57746         0.20346
C         25.86918        12.03919         0.28651
C         27.13301         9.90470         0.22405
C         27.17957        12.77690         0.21844
C         25.87516        14.91275        -0.28837
C         25.90905        16.28490        -0.48576
C         27.13716        14.14743        -0.35906
C         27.15891        17.00190        -0.61286
C         25.89322        19.17743        -0.65206
C         27.13530        18.47998        -0.66431
C         28.33055         2.23456        -0.57989
C         28.38317         3.53368        -0.05746
C         29.57205         1.53581        -0.84401
C         29.66603         4.10940         0.36034
C         28.44113         6.36076         1.13763
C         28.37689         7.72602         0.48491
C         29.72071         5.57353         0.83283
C         29.64741         8.35721        -0.05477
C         28.40787        10.61883         0.14246
C         28.42542        12.01003         0.07021
C         29.64203         9.88380         0.03712
C         29.70788        12.78297         0.22319
C         28.42989        14.87346        -0.59452
C         28.36820        16.33667        -0.65147
C         29.71022        14.20070        -0.30420
C         29.64007        17.07863        -0.96860
C         28.33335        19.17743        -0.62007
C         29.62679        18.46522        -0.32623
C         30.78168         2.15484        -0.71111
C         30.88636         3.48730        -0.17579
C         32.07466         4.18924        -0.11346
C         30.96648         6.28952         0.54079
C         30.91174         7.80187         0.64646
C         32.09544         5.57920         0.19713
C         32.14149         8.49458         0.10443
C         30.86502        10.57067        -0.12612
C         30.93185        11.99336        -0.14463
C         32.09404         9.78875        -0.25222
C         32.12878        12.73432        -0.29550
C         30.91221        14.88045        -0.42423
C         30.93149        16.33102        -0.65335
C         32.13247        14.11868        -0.34492
C         32.07468        17.07643        -0.65873
C         30.88518        19.21394        -0.69619
C         32.03745        18.52115        -0.82013
O         27.71422        14.17602        -1.71679
O          5.35621         3.80988         1.46428
O         22.54089        14.47652        -1.49044
O         20.16587         5.80563         2.01580
O         11.00617         7.18151         1.95995
O         26.48784         4.40636        -1.35808
O         29.82485         4.46939         1.79483
O         26.51752        12.60211         1.50466
O         12.67034        16.65683        -1.12840
O          9.20607        10.13506        -1.68475
O          8.42846        16.28487         2.27877
H          8.15167        17.17797         2.58040
O         24.53667         9.36633        -1.32920
H         24.41182        10.14785        -1.90737
O         14.80312         8.55936         2.45678
H         14.73511         7.63160         2.76995
O         21.96465        17.13066        -1.84448
H         21.91696        16.18611        -2.13986
O         24.74039         9.00554         2.30784
H         24.96792         8.19773         2.82882
O         29.81208        12.96639         1.70769
H         29.73459        12.07606         2.11523
O         30.78014         8.14557         2.04923
H         31.51136         7.71852         2.54103
O         11.64980        10.69651        -1.74413
H         10.85625        10.82446        -2.31482
O         29.65420        18.25625         1.12177
H         29.68647        19.13509         1.55343
O         29.77805         8.00251        -1.46357
H         28.99628         8.35350        -1.93950
O         29.61790        17.28081        -2.41109
H         29.40340        16.42294        -2.83448
O          7.39819         5.47507        -1.82423
H          7.97621         6.21991        -2.13770
O         23.72014        16.40549         1.35430
H         23.34051        17.23533         1.73580
O         11.22039        16.44286         2.22103
H         10.34387        16.20531         2.61560
O         28.41423         6.52903         2.60893
H         28.84041         5.72192         2.98058
O          3.35797         1.92622         1.68680
H          4.07629         2.49554         2.05896
O         18.46824         3.75532        -1.80876
H         19.19963         3.21326        -2.17085
O         25.76857         6.44746         2.44814
H         26.69992         6.57409         2.79302
O         22.17985        18.52707         1.56521
H         22.23099        19.45883         1.86659
O         17.36656         4.23272         1.67293
H         17.42507         3.29547         1.95453
O          9.13711         8.93450         1.64747
H          9.52955         8.32347         2.31481
O         15.96694        10.55234        -1.36718
H         15.15121        11.00249        -1.67913
O          6.04635        12.09228        -1.99969
H          6.88614        11.69307        -2.31401
O         19.74009        12.90346         2.41806
H         19.75000        11.98169         2.75440
O         24.50014        16.85367        -2.23689
H         23.65063        17.28039        -2.50769
O          3.53172        10.60109         1.75312
H          2.67957        11.00781         2.02009
O          9.02533         7.58446        -1.78826
H          8.97137         8.48534        -2.19835
O          2.52142         5.78200        -2.32392
H          2.53318         6.74266        -2.52157
O         17.19610         5.88640        -1.59117
H         17.11021         6.83969        -1.80144
O          9.29215         5.28029         2.14542
H          9.68079         6.00822         2.68374
H          0.46793         1.38972        -1.38952
H          0.42578         3.86866        -1.48104
H          2.33370         0.17707        -0.32131
H          0.19410         5.77988        -0.45589
H          0.16300         8.17957        -0.08864
H          0.15759        10.15266        -0.31261
H          0.17588        12.55937        -0.13223
H          0.17530        14.47350        -0.24942
H          0.21012        16.92586        -0.32102
H          1.45643        19.06523        -0.31971
H          4.79342         0.22701        -0.35696
H          3.60429        20.30266        -0.18915
H          7.31022         0.22174        -0.48389
H          6.06769        20.29483         0.01360
H          9.82675         0.27242        -0.47223
H          8.51263        20.30080         0.25899
H         12.26808         0.35234        -0.55542
H         10.95939        20.34541         0.35241
H         14.71824         0.36666        -0.50926
H         13.50791        20.35220         0.14539
H         17.17132         0.32382        -0.23534
H         15.96549        20.33223        -0.10965
H         19.70858         0.30294        -0.22116
H         18.41872        20.30934        -0.34884
H         22.17193         0.37919        -0.48287
H         20.87472        20.32522        -0.43490
H         24.61268         0.42763        -0.67851
H         23.50817        20.30858        -0.22371
H         27.08853         0.50330        -1.03834
H         25.91798        20.27794        -0.59902
H         29.51728         0.50923        -1.23411
H         28.31543        20.27968        -0.60678
H         31.70642         1.63641        -1.00452
H         33.00892         3.70911        -0.43861
H         33.05172         6.09905         0.04885
H         33.10455         7.96655         0.06750
H         33.00891        10.28767        -0.60055
H         33.09140        12.21238        -0.39088
H         33.09651        14.63579        -0.44341
H         33.06125        16.60859        -0.52749
H         30.86929        20.31234        -0.76843
H         32.98668        19.04349        -1.01203
