         424
 CSIRO Nanostructure Databank - Neutral Graphene Oxide Data Set
C          1.26804         1.91907        -0.08482
C          1.20777         3.34558         0.02560
C          2.42546         1.23483         0.11588
C          2.36512         4.10060         0.19033
C          1.18583         6.28781         0.54077
C          1.20185         7.66190         0.77599
C          2.36400         5.55335         0.23974
C          2.35863         8.43462         0.56544
C          1.30380        10.60828         1.13510
C          1.32311        11.99170         1.14159
C          2.42423         9.84444         0.72058
C          2.46024        12.73489         0.73049
C          1.27389        14.93873         1.15473
C          1.27235        16.32341         1.24801
C          2.44911        14.20644         0.75644
C          2.40645        17.09020         0.92219
C          2.46228        18.50359         1.06851
C          3.67156         1.93868         0.57285
C          3.63916         3.42846         0.30064
C          4.93821         1.29958         0.07122
C          4.82101         4.13954         0.28451
C          3.58875         6.25196         0.09409
C          3.51898         7.74981        -0.12886
C          4.82598         5.56973         0.08877
C          4.85483         8.40576         0.26019
C          3.64114        10.57347         0.35605
C          3.62162        12.03115         0.33276
C          4.80845         9.89789         0.05826
C          4.84184        12.72660         0.06246
C          3.58924        14.91085         0.41273
C          3.57960        16.40872         0.28595
C          4.83318        14.22672        -0.08160
C          4.87139        17.07437         0.65619
C          3.64749        19.19342         0.92189
C          4.89845        18.47194         0.81378
C          6.12319         1.98764         0.12130
C          6.10111         3.41714         0.63111
C          7.38652         1.35636        -0.08926
C          7.35675         4.18091         0.29890
C          6.07960         6.26653        -0.04768
C          6.02438         7.72104        -0.46509
C          7.30744         5.61668         0.10651
C          7.31575         8.47776        -0.28480
C          6.01382        10.60789        -0.50979
C          6.05406        12.06680        -0.13756
C          7.31532         9.87281        -0.31976
C          7.31629        12.76416        -0.08206
C          6.08201        14.82079         0.55078
C          6.09576        16.29902         0.85613
C          7.35948        14.14856         0.25068
C          7.39607        16.98864         0.87929
C          6.13950        19.13649         0.93301
C          7.38396        18.44118         0.92268
C          8.59616         2.04901         0.09866
C          8.54835         3.49488         0.25478
C          9.84381         1.37825         0.03094
C          9.81951         4.25045         0.50108
C          8.55089         6.34725        -0.09917
C          8.52645         7.73985        -0.29862
C          9.80757         5.66254        -0.02500
C          9.76250         8.46364        -0.73554
C          8.54955        10.61938        -0.30301
C          8.54826        12.05279        -0.18164
C          9.77336         9.93242        -0.40381
C          9.78905        12.76405        -0.11752
C          8.57308        14.85208         0.38479
C          8.57360        16.26436         0.72054
C          9.81108        14.17220         0.13329
C          9.87105        16.94539         0.88276
C          8.58459        19.15098         0.87062
C          9.86438        18.47812         1.00836
C         11.08843         2.05574         0.11960
C         11.08099         3.49831         0.19888
C         12.32386         1.37254         0.04205
C         12.26743         4.21574         0.20088
C         11.03370         6.33542        -0.16861
C         11.04686         7.76160        -0.41424
C         12.27846         5.63888         0.03476
C         12.22679         8.46492        -0.53025
C         11.00735        10.63324        -0.43604
C         11.02096        12.05864        -0.29602
C         12.23639         9.91179        -0.58376
C         12.25618        12.76903        -0.34922
C         11.05774        14.88340         0.12626
C         11.10638        16.28189         0.41400
C         12.27431        14.18620        -0.15787
C         12.30927        17.00941         0.31103
C         11.11119        19.27584         0.68097
C         12.36184        18.44548         0.51117
C         13.57335         2.03222         0.25978
C         13.52422         3.49832         0.49508
C         14.78843         1.37604         0.25555
C         14.80041         4.29092         0.55260
C         13.52225         6.31845        -0.13226
C         13.48935         7.68149        -0.77780
C         14.75424         5.68257         0.04486
C         14.74021         8.47726        -0.57833
C         13.46575        10.61574        -0.67748
C         13.48171        12.06352        -0.58982
C         14.69021         9.87670        -0.71585
C         14.69054        12.79361        -0.65003
C         13.50929        14.90361        -0.20405
C         13.53287        16.32282        -0.01103
C         14.72753        14.20405        -0.44731
C         14.75663        17.02901        -0.11709
C         13.55344        19.11823         0.44221
C         14.79599        18.46242         0.11049
C         16.08411         2.01197         0.70740
C         16.10659         3.54290         0.57418
C         17.29565         1.36110         0.08267
C         17.31597         4.24747         0.05555
C         15.98846         6.35567        -0.29299
C         15.96395         7.77512        -0.53619
C         17.21774         5.67213        -0.32222
C         17.20396         8.50033        -0.58369
C         15.95246        10.58771        -0.92020
C         15.95066        12.10891        -0.95183
C         17.20149         9.88224        -0.66622
C         17.22848        12.81593        -0.75477
C         15.96873        14.92286        -0.52089
C         15.97557        16.33662        -0.38434
C         17.21888        14.23043        -0.67572
C         17.21516        17.05382        -0.47684
C         15.96212        19.17870        -0.02379
C         17.21760        18.56497        -0.57079
C         18.47856         2.03485        -0.29052
C         18.50428         3.48875        -0.36589
C         19.64196         1.32717        -0.63588
C         19.66246         4.18495        -0.72148
C         18.44351         6.35271        -0.59701
C         18.45667         7.77565        -0.65610
C         19.66058         5.63071        -0.74940
C         19.65682         8.47117        -0.87927
C         18.45069        10.63906        -0.32616
C         18.44182        12.10471        -0.70094
C         19.68562         9.91663        -0.78877
C         19.66016        12.79886        -0.68726
C         18.45401        14.94208        -0.67223
C         18.41958        16.37214        -0.60893
C         19.69172        14.21362        -0.69876
C         19.69313        17.12945        -0.62660
C         18.48493        19.18379        -0.02593
C         19.69426        18.53818        -0.13665
C         20.88420         1.99386        -1.14903
C         20.89843         3.48979        -0.94604
C         22.14254         1.36148        -0.61776
C         22.10367         4.18936        -1.00130
C         20.87597         6.33200        -0.96791
C         20.88039         7.75531        -1.03728
C         22.11776         5.63307        -1.05822
C         22.10111         8.44886        -1.25082
C         20.84890        10.60678        -0.93466
C         20.93352        12.02433        -0.45359
C         22.06194         9.91193        -1.39448
C         22.20187        12.75418        -0.81242
C         20.95906        14.87752        -0.58882
C         20.97399        16.35261        -0.56984
C         22.18340        14.17322        -0.60648
C         22.16505        17.00773         0.03595
C         20.95542        19.17569         0.11216
C         22.18437        18.49085         0.10173
C         23.33125         2.06762        -0.54570
C         23.36542         3.49439        -0.87359
C         24.55008         1.43920        -0.14366
C         24.56273         4.19843        -0.88586
C         23.32864         6.34369        -1.19885
C         23.32716         7.76826        -1.31832
C         24.59429         5.63494        -1.14129
C         24.57609         8.50921        -1.47447
C         23.36119        10.66226        -1.47452
C         23.39298        12.09241        -1.08431
C         24.60857         9.87739        -1.47166
C         24.66611        12.75987        -0.98444
C         23.45268        14.82818        -0.42789
C         23.44467        16.22812         0.06315
C         24.64770        14.13433        -0.55002
C         24.71131        16.97770         0.05718
C         23.43092        19.12272         0.22941
C         24.67413        18.41459         0.16650
C         25.75860         2.14459        -0.07992
C         25.79718         3.55135        -0.48561
C         26.97263         1.50349         0.24214
C         26.97070         4.26204        -0.46036
C         25.78954         6.31312        -1.26288
C         25.82731         7.72561        -1.80237
C         27.07298         5.52785        -1.27083
C         27.12465         8.48713        -1.54035
C         25.85526        10.65807        -1.82372
C         25.88603        12.06687        -1.20595
C         27.13059         9.86434        -1.59902
C         27.13611        12.74331        -1.02799
C         25.92074        14.76708        -0.03185
C         25.90535        16.28190        -0.10210
C         27.17048        14.14453        -0.61072
C         27.13637        16.99151        -0.13379
C         25.89685        19.10453         0.18634
C         27.12927        18.41887         0.04398
C         28.16558         2.24562         0.45201
C         28.11068         3.76257         0.38265
C         29.31635         1.65323         0.91494
C         29.44662         4.37425         0.02505
C         28.32518         6.34618        -1.02876
C         28.34459         7.70406        -1.37938
C         29.50064         5.63311        -0.62151
C         29.63512         8.42133        -1.50375
C         28.38363        10.69159        -1.82851
C         28.36877        12.06931        -1.20724
C         29.67667         9.91434        -1.61102
C         29.61123        12.74809        -1.08214
C         28.33733        14.87330        -0.65418
C         28.36169        16.29378        -0.34324
C         29.59706        14.25354        -1.22550
C         29.58086        17.00104        -0.29114
C         28.35901        19.10746         0.09853
C         29.58346        18.41742        -0.02368
C         30.47385         2.49491         1.35729
C         30.60272         3.74824         0.52164
C         31.74204         1.70673         1.43928
C         31.89357         4.36045         0.41301
C         30.82803         6.25153        -0.77585
C         30.90849         7.71103        -1.16788
C         31.99934         5.66882        -0.11779
C         32.09172         8.48400        -0.76551
C         30.88201        10.62064        -1.11179
C         30.83420        12.05434        -1.00959
C         32.03357         9.90910        -0.76600
C         32.09606        12.76966        -0.89184
C         30.86766        14.93444        -0.77673
C         30.83977        16.30666        -0.42922
C         32.09422        14.23274        -0.77694
C         32.05378        17.00495        -0.19744
C         30.81127        19.10276         0.12928
C         32.04638        18.41950         0.07343
C         32.99059         2.29944         1.25806
C         33.07377         3.68308         0.82962
C         34.20154         1.59124         1.49346
C         34.32927         4.33684         0.74003
C         33.21940         6.38365        -0.08346
C         33.25730         7.79598        -0.36929
C         34.40254         5.70884         0.34743
C         34.50415         8.51591        -0.20239
C         33.23141        10.66841        -0.25621
C         33.27666        12.06756        -0.79864
C         34.53008         9.90719        -0.33260
C         34.58985        12.78849        -0.95186
C         33.29446        14.89638        -0.45275
C         33.29991        16.30558        -0.24315
C         34.53384        14.09247        -0.13066
C         34.51686        17.01605        -0.08126
C         33.26786        19.09366         0.28172
C         34.50878        18.41449         0.18937
C         35.45648         2.22999         1.41141
C         35.52686         3.62490         1.06189
C         36.65917         1.52696         1.68008
C         36.77845         4.28893         1.02292
C         35.65735         6.39606         0.36651
C         35.71397         7.79222         0.08480
C         36.84674         5.68649         0.70553
C         36.95513         8.49048         0.17528
C         35.77461        10.62995        -0.29495
C         35.80933        11.99830        -0.55392
C         37.00310         9.90052        -0.03433
C         37.11482        12.73459        -0.66326
C         35.82704        14.85633        -0.22794
C         35.81160        16.34791        -0.45002
C         37.03067        14.19128        -0.22217
C         37.03535        17.02878         0.10541
C         35.73579        19.11148         0.36443
C         36.98512        18.43647         0.36574
C         37.90360         2.17204         1.63641
C         37.97175         3.56869         1.32209
C         39.12241         1.46366         1.91281
C         39.22957         4.23892         1.31356
C         38.09831         6.36678         0.73566
C         38.15305         7.76811         0.48546
C         39.29876         5.64097         1.03819
C         39.40534         8.45681         0.56932
C         38.24206        10.59715         0.07902
C         38.29856        12.00583        -0.09441
C         39.44674         9.87467         0.38791
C         39.48883        12.72612         0.11891
C         38.27626        14.89428        -0.03051
C         38.24468        16.32336         0.19362
C         39.48952        14.17826         0.11306
C         39.46067        17.02786         0.47692
C         38.18414        19.12402         0.65385
C         39.42172        18.44534         0.68245
C         40.33107         2.10680         1.89078
C         40.41734         3.50732         1.60103
C         41.65890         4.18793         1.59923
C         40.55417         6.30623         1.07034
C         40.60449         7.73529         0.84598
C         41.72254         5.54540         1.34596
C         41.82249         8.45403         0.90976
C         40.67946        10.57222         0.50153
C         40.70410        12.01650         0.40336
C         41.85857         9.82526         0.74778
C         41.88782        12.75039         0.58735
C         40.70960        14.88164         0.38404
C         40.70329        16.33408         0.52123
C         41.88786        14.14357         0.57775
C         41.88025        17.07311         0.73893
C         40.63776        19.14651         0.91743
C         41.84148        18.46320         0.93195
O         14.05035         4.00308         1.78147
O          5.94110        15.25154         1.92996
O         31.16701         6.66587        -2.15762
O         22.55536        10.41955        -2.69331
O         15.94933        11.34608        -2.21351
O         17.03964         4.10779         1.55115
O         20.52124        16.95555        -1.83665
O         10.00937        17.62418         2.18217
O         22.61019        16.37693         1.28575
O         29.88828         9.08762        -2.81571
O          6.09941         3.31646         2.09328
H          5.33278         2.73772         2.33637
O         18.49564        10.64724         1.14611
H         19.38185        11.01767         1.39392
O         30.13607         2.96650         2.75081
H         30.92494         3.44308         3.08929
O         17.22164        18.88068        -2.01621
H         18.03950        18.49034        -2.39453
O         25.81942         7.57054        -3.27192
H         25.67300         8.46886        -3.64959
O          5.08990         8.16965         1.67386
H          4.38727         8.62923         2.18041
O          5.79628         7.74333        -1.90912
H          5.90551         8.68495        -2.20446
O         10.88085        20.02953        -0.52659
H         11.11566        19.47224        -1.29643
O         27.22206         5.08590        -2.67375
H         26.95399         5.84838        -3.23988
O         25.95247        14.43971         1.40359
H         25.18171        14.88109         1.82159
O          9.84827         4.41317         1.97808
H         10.74051         4.74148         2.22311
O         29.53654        14.48448        -2.68055
H         28.84649        13.88836        -3.04433
O         28.36961        11.02187        -3.27275
H         28.81559        10.25536        -3.71552
O          9.69186         8.41732        -2.22377
H         10.54607         8.76176        -2.56347
O          3.71345         1.79272         2.05587
H          2.88076         2.17882         2.40358
O          3.23877         7.95355        -1.54004
H          4.03717         7.63632        -2.03611
O         25.73191        10.85236        -3.27094
H         26.63287        11.12337        -3.59042
O          5.79673        10.56916        -1.99083
H          5.05982        11.18730        -2.19297
O         34.71726        13.19359        -2.35148
H         34.41459        12.44930        -2.91324
O         27.82390         4.22272         1.74641
H         28.52453         3.82598         2.32779
O          3.41807        16.67318        -1.21756
H          2.47126        16.51169        -1.42517
O         33.01609        10.87462         1.19991
H         33.55168        11.66236         1.45861
O         16.20041         1.70691         2.13378
H         16.67028         2.47154         2.54260
O         13.46818         7.39810        -2.23612
H         13.66838         8.23897        -2.70106
O         20.88610         1.77710        -2.62211
H         21.70000         2.19906        -2.97254
O         21.01858        11.88936         1.03465
H         21.14564        12.79279         1.39974
O         34.37848        13.63051         1.25514
H         34.30237        14.42006         1.83201
O          4.93689        14.46701        -1.52420
H          4.47041        15.32520        -1.71117
O         37.40711        12.86511        -2.10723
H         36.56769        13.18918        -2.52233
O         35.90991        16.52427        -1.92170
H         36.74336        16.09071        -2.20646
H          0.34720         1.37774        -0.34746
H          0.23425         3.83948        -0.09650
H          2.44574         0.13755         0.04196
H          0.24426         5.74340         0.70130
H          0.28010         8.13557         1.14413
H          0.38016        10.09560         1.43703
H          0.41743        12.51640         1.47218
H          0.35864        14.39904         1.42807
H          0.37051        16.83687         1.61451
H          1.54220        19.04490         1.33688
H          4.92175         0.23332        -0.20344
H          3.67466        20.28651         1.03221
H          7.40885         0.28326        -0.33501
H          6.15346        20.23327         1.02099
H          9.84568         0.28540        -0.09849
H          8.57676        20.23097         0.66374
H         12.32306         0.28194        -0.10485
H         11.27182        20.02824         1.49728
H         14.80460         0.29036         0.07275
H         13.56347        20.21001         0.58007
H         17.32485         0.26068         0.12130
H         15.95075        20.26678         0.14289
H         19.62751         0.22678        -0.60453
H         18.45483        20.23561         0.29781
H         22.13107         0.29130        -0.36031
H         20.95766        20.26140         0.29311
H         24.53496         0.36963         0.11518
H         23.46601        20.21944         0.31304
H         26.98569         0.41405         0.39991
H         25.90286        20.19824         0.30241
H         29.36489         0.56155         1.04996
H         28.36564        20.19379         0.27038
H         31.68396         0.66047         1.77495
H         30.80115        20.18372         0.33292
H         34.15489         0.53000         1.78021
H         33.25955        20.17448         0.48587
H         36.61085         0.45763         1.93477
H         35.71203        20.19340         0.56068
H         39.06734         0.39016         2.14521
H         38.15510        20.20636         0.84831
H         41.25784         1.55472         2.10516
H         42.57965         3.62587         1.81251
H         42.70493         6.03572         1.36348
H         42.76514         7.92608         1.10476
H         42.82911        10.33344         0.81893
H         42.83857        12.23475         0.77547
H         42.83796        14.66055         0.76661
H         42.85718        16.57225         0.75948
H         40.61012        20.23439         1.07287
H         42.78070        19.00845         1.10078
