         640
 CSIRO Nanostructure Databank - Neutral Graphene Oxide Data Set
C         22.94782        27.35133        -0.48814
C         22.95768        28.78143        -0.46010
C         22.95210        31.74760        -0.41695
C         22.96234        33.10836        -0.37429
C         23.05583        36.01632        -0.60248
C         23.02883        37.35586        -0.47899
C         22.99556        40.32169         0.06574
C         23.02535        41.63457         0.36257
C         23.04471        44.55634         0.69322
C         23.04749        45.92794         0.83947
C         25.32358        24.49913        -0.21663
C         24.15649        25.16634        -0.39405
C         25.38310        27.29347        -0.77730
C         24.10790        26.60841        -0.53902
C         25.39684        28.85157        -0.74622
C         24.11903        29.52659        -0.48714
C         25.36744        31.62093        -0.04526
C         24.17409        30.97593        -0.29099
C         25.37311        33.07789         0.36586
C         24.16908        33.84788        -0.12627
C         25.46045        35.94825         0.02479
C         24.21275        35.23030        -0.19425
C         25.46617        37.35620         0.05718
C         24.15325        38.10270         0.19058
C         25.50140        40.24718         0.14566
C         24.23406        39.55136        -0.31339
C         25.48288        41.68756         0.34683
C         24.26898        42.38833         0.41960
C         25.49329        44.53070         0.62915
C         24.25940        43.82024         0.58860
C         25.50411        45.95505         0.79065
C         24.26444        46.65363         0.89288
C         25.45775        48.76540         1.08624
C         24.27494        48.07053         1.04030
C         27.96597        23.06538         0.39286
C         27.89879        24.54228         0.32748
C         26.60087        25.22573        -0.01613
C         27.82803        27.33952        -0.57732
C         26.64616        26.63470        -0.48100
C         27.85430        28.78270        -0.53660
C         26.66144        29.48711        -0.41404
C         27.90766        31.62102        -0.12085
C         26.64589        30.85531         0.20523
C         27.87256        33.04700        -0.01843
C         26.68847        33.78153         0.08603
C         27.90790        35.96095         0.07892
C         26.69459        35.22354         0.08352
C         27.91615        37.37147         0.09432
C         26.68157        38.07653         0.11781
C         27.94503        40.19964         0.69106
C         26.66915        39.52636         0.24644
C         27.95495        41.68518         0.42853
C         26.73338        42.39512         0.44215
C         27.96265        44.53235         0.53373
C         26.73153        43.82332         0.52230
C         27.97804        45.96428         0.69771
C         26.73153        46.67505         0.85096
C         27.94834        48.83023         1.05253
C         26.72408        48.10019         1.00429
C         27.98948        50.24255         1.11474
C         30.32227        23.03440        -0.35775
C         29.08260        22.37723         0.10988
C         30.39760        24.50512        -0.33017
C         29.21635        25.32238         0.17980
C         30.37136        27.35930        -0.67350
C         29.09592        26.54701        -0.74348
C         30.34517        28.80231        -0.65882
C         29.13122        29.49246        -0.48271
C         30.36136        31.66376        -0.51961
C         29.11166        30.92947        -0.34342
C         30.38296        33.03830        -0.40830
C         29.17268        33.74469         0.03522
C         30.43837        35.96846        -0.19973
C         29.19059        35.24194         0.12946
C         30.41841        37.39002        -0.09857
C         29.18499        38.09846         0.09162
C         30.41598        40.22237         0.12959
C         29.19772        39.48992         0.23686
C         30.41761        41.65694         0.22103
C         29.18181        42.37817         0.36798
C         30.41897        44.52101         0.40991
C         29.18650        43.81466         0.41712
C         30.42901        45.95277         0.53110
C         29.19879        46.65376         0.70856
C         30.37267        48.90451         0.40034
C         29.27887        48.09716         1.14660
C         30.44729        50.29543         1.03258
C         29.18144        50.95519         1.14654
C         32.89871        20.24018         0.08267
C         31.73164        20.89215         0.16561
C         32.88542        23.04012        -0.43181
C         31.62292        22.26427        -0.39783
C         32.85303        24.47709        -0.60263
C         31.56715        25.18236        -0.62529
C         32.79889        27.35693        -1.05357
C         31.55229        26.64294        -0.72161
C         32.83145        28.83300        -0.94527
C         31.59783        29.53625        -0.75968
C         32.84656        31.66544        -0.84364
C         31.60470        30.94328        -0.74667
C         32.86953        33.08726        -0.78871
C         31.56493        33.83043        -0.90595
C         32.86468        35.96719        -0.51237
C         31.61641        35.27349        -0.46063
C         32.87548        37.38438        -0.34888
C         31.64717        38.09797        -0.17999
C         32.87489        40.23500        -0.14413
C         31.63978        39.52075        -0.07144
C         32.84655        41.65348        -0.11077
C         31.64052        42.36962         0.09298
C         32.85334        44.53124         0.35564
C         31.64789        43.81515         0.25477
C         32.88048        45.94807         0.55820
C         31.65329        46.66012         0.53877
C         32.92215        48.75853         0.95047
C         31.73231        48.15081         0.23933
C         32.88241        50.10741         1.59123
C         31.62863        50.91100         1.39061
C         32.92104        52.94585         1.73893
C         31.74535        52.28396         1.86271
C         35.38680        18.76197        -0.51511
C         35.35640        20.16309        -0.47246
C         34.04015        20.85741        -0.70391
C         35.33984        23.03292        -0.38282
C         34.09030        22.34800        -0.44948
C         35.32137        24.51969        -0.13570
C         34.05137        25.16633        -0.61978
C         35.36344        27.31406        -0.92753
C         34.09644        26.57463        -1.01034
C         35.29709        28.73609        -1.31317
C         34.04191        29.51370        -1.09389
C         35.29831        31.68097        -1.09923
C         34.07678        30.94715        -1.00622
C         35.32113        33.08333        -0.92759
C         34.08466        33.80172        -0.79307
C         35.32888        35.95328        -0.61666
C         34.09397        35.24715        -0.66532
C         35.34336        37.37922        -0.46961
C         34.11578        38.09930        -0.36607
C         35.36039        40.23577        -0.24619
C         34.11222        39.52344        -0.26381
C         35.37709        41.64334        -0.17135
C         34.10972        42.37245        -0.27341
C         35.37621        44.44463         0.53520
C         34.11279        43.86337         0.02840
C         35.37540        45.91361         0.90376
C         34.11792        46.65068         0.72674
C         35.37464        48.66431         1.58724
C         34.11085        48.05456         0.98969
C         35.37985        50.19598         1.51461
C         34.13927        50.86845         1.29553
C         35.33826        53.06917         0.84792
C         34.02619        52.31222         0.91643
C         35.29768        54.43635         0.55665
C         37.78789        18.76224        -0.10384
C         36.57507        18.07064        -0.33534
C         37.78183        20.19383        -0.12921
C         36.56032        20.88920        -0.31649
C         37.80877        23.06162        -0.35616
C         36.55167        22.34262        -0.34226
C         37.79799        24.51861        -0.51121
C         36.60031        25.21772        -0.55043
C         37.83572        27.38015        -0.82854
C         36.57564        26.64993        -0.78129
C         37.85251        28.77375        -1.02930
C         36.60500        29.47387        -1.40982
C         37.85925        31.70236        -1.23309
C         36.55987        30.97307        -1.41576
C         37.81058        33.12916        -0.88251
C         36.57710        33.81325        -0.85224
C         37.81068        35.93858        -0.57103
C         36.57012        35.23534        -0.68792
C         37.82114        37.38077        -0.45314
C         36.59182        38.08869        -0.41873
C         37.82349        40.23738        -0.32949
C         36.59810        39.51714        -0.31691
C         37.83220        41.66631        -0.24064
C         36.60224        42.37523        -0.11502
C         37.83597        44.50341         0.18963
C         36.62986        43.77433         0.16629
C         37.85822        45.93899         0.47874
C         36.66385        46.64429         0.82386
C         37.85166        48.78485         0.82572
C         36.65277        48.03003         1.03482
C         37.86316        50.21395         0.79834
C         36.68538        50.98274         1.18283
C         37.75551        53.07294         0.33592
C         36.57827        52.39299         0.77724
C         37.68359        54.47953         0.06637
C         36.46200        55.13184         0.19776
C         40.28786        15.98329         0.35011
C         39.09538        16.65331         0.11112
C         40.18749        18.84480         0.65849
C         39.01192        18.05641         0.14244
C         40.23198        20.27161         0.17881
C         39.02715        20.93356        -0.07453
C         40.31285        23.05005        -0.60017
C         39.00746        22.36006        -0.28865
C         40.27950        24.54383        -0.39327
C         39.06614        25.23685        -0.53378
C         40.29560        27.38236        -0.56406
C         39.06147        26.66871        -0.61896
C         40.30165        28.80662        -0.68098
C         39.07626        29.51246        -0.90228
C         40.30222        31.65885        -0.82983
C         39.09234        30.93229        -0.96924
C         40.27926        33.08016        -0.80384
C         39.05050        33.81173        -0.73168
C         40.28589        35.93513        -0.25977
C         39.02779        35.22579        -0.56102
C         40.31037        37.41031        -0.32463
C         39.05740        38.10166        -0.40063
C         40.29744        40.23964        -0.39684
C         39.06075        39.52319        -0.38308
C         40.29823        41.66985        -0.38643
C         39.05296        42.40090        -0.27542
C         40.27085        44.58622        -0.29785
C         39.03237        43.81161        -0.13977
C         40.32566        45.99513         0.15132
C         39.08179        46.66462         0.43221
C         40.28838        48.83180         0.40025
C         39.07127        48.08853         0.56627
C         40.26467        50.20891         0.22711
C         39.01351        50.92704         0.35818
C         40.17057        53.00500        -0.43431
C         38.96706        52.32744         0.17109
C         40.18626        54.50228        -0.06596
C         38.89045        55.21468        -0.50401
C         40.17265        57.34588        -0.23453
C         38.99915        56.68108        -0.13528
C         42.74612        16.01646         0.64672
C         41.50902        16.70373         0.53299
C         42.71070        18.84127         0.62571
C         41.49939        18.11872         0.54651
C         42.70292        20.28301         0.52330
C         41.48719        20.98207         0.23234
C         42.72413        23.10209         0.17193
C         41.52434        22.36993        -0.01420
C         42.73134        24.54612         0.00186
C         41.51563        25.24740        -0.25861
C         42.75718        27.39055        -0.30523
C         41.52142        26.67502        -0.36458
C         42.76827        28.81206        -0.43604
C         41.53781        29.52626        -0.61393
C         42.79288        31.65572        -0.65817
C         41.54803        30.94211        -0.71254
C         42.82040        33.07045        -0.75413
C         41.55468        33.83407        -1.04847
C         42.84196        35.93974        -0.49592
C         41.57732        35.19232        -0.38985
C         42.82494        37.37953        -0.04826
C         41.52062        38.09771        -0.32772
C         42.77008        40.23448        -0.49120
C         41.53202        39.52596        -0.40115
C         42.74584        41.63868        -0.51793
C         41.52905        42.35023        -0.42631
C         42.81069        44.48870         0.09153
C         41.55647        43.83094        -0.44851
C         42.79762        45.99375         0.02762
C         41.55382        46.66432         0.18833
C         42.81257        48.85909         0.10744
C         41.59639        48.11222         0.60544
C         42.78591        50.24414         0.03309
C         41.51217        50.96195         0.07676
C         42.74888        53.13143         0.07760
C         41.48114        52.32290        -0.08828
C         42.72065        54.48637        -0.60111
C         41.40472        55.21121        -0.63636
C         42.62385        57.33987        -0.69888
C         41.42051        56.68105        -0.56743
C         43.92480        16.71860         0.78055
C         45.17890        18.88098         0.86470
C         43.94237        18.13807         0.76260
C         45.16993        20.29053         0.81137
C         43.92139        21.00416         0.62911
C         45.13683        23.18904         0.92436
C         43.90846        22.41651         0.52783
C         45.18127        24.58989         0.37579
C         43.96354        25.26503         0.09515
C         45.21776        27.39353        -0.06326
C         43.98062        26.68492        -0.10640
C         45.23047        28.81313        -0.21580
C         44.00514        29.51984        -0.38367
C         45.25418        31.65759        -0.47367
C         44.01831        30.94569        -0.50006
C         45.26504        33.07895        -0.57115
C         44.02950        33.78249        -0.68425
C         45.28692        35.95537        -0.61029
C         44.02751        35.24470        -0.63879
C         45.27954        37.38397        -0.60698
C         44.05476        38.12740        -0.49683
C         45.26713        40.25443        -0.81268
C         44.03306        39.51483        -0.61354
C         45.26053        41.65307        -0.85741
C         43.99193        42.38932        -0.77977
C         45.30519        44.58339        -0.35781
C         44.02366        43.87702        -0.56387
C         45.28459        45.97840        -0.12018
C         44.02735        46.68718         0.00177
C         45.26987        48.80785        -0.19649
C         44.05275        48.12528        -0.02928
C         45.25208        50.24771        -0.62775
C         44.00396        50.99410        -0.22312
C         45.24190        53.12787        -0.42671
C         44.01198        52.37008        -0.24357
C         45.22624        54.54010        -0.53235
C         43.96874        55.27380        -0.61329
C         43.87081        56.64518        -0.75725
C         47.61565        18.88038         1.02608
C         46.42694        18.19923         0.99554
C         47.65415        20.30128         0.92414
C         46.41545        21.01466         0.83299
C         47.64845        23.13437         0.67918
C         46.42556        22.42692         0.74778
C         47.65660        24.56535         0.52874
C         46.41644        25.27773         0.35173
C         47.68998        27.39424         0.13561
C         46.44364        26.68929         0.13082
C         47.70126        28.81770        -0.04756
C         46.47384        29.52284        -0.20164
C         47.72731        31.64387        -0.36955
C         46.48562        30.94149        -0.34112
C         47.73075        33.08471        -0.45684
C         46.51289        33.79046        -0.54046
C         47.74758        35.93310        -0.53598
C         46.51346        35.23458        -0.58792
C         47.74893        37.37189        -0.58601
C         46.50888        38.08804        -0.66714
C         47.73693        40.19530        -0.66342
C         46.51442        39.51517        -0.76913
C         47.81209        41.64674        -0.83207
C         46.47384        42.45873        -0.96769
C         47.73310        44.57061        -0.33032
C         46.50953        43.88411        -0.53456
C         47.75205        45.97552        -0.15487
C         46.51863        46.69501        -0.10839
C         47.75586        48.84901        -0.11118
C         46.51527        48.12599        -0.13570
C         47.74509        50.31017        -0.18530
C         46.52625        51.00070        -0.33459
C         47.72571        53.15046        -0.48602
C         46.49856        52.42415        -0.41653
C         47.67102        54.56764        -0.58839
C         46.46666        55.23360        -0.61181
C         50.15070        20.34397         1.10418
C         48.89033        21.01481         0.91907
C         50.13005        23.14639         0.70669
C         48.88977        22.42207         0.75030
C         50.11510        24.53937         0.61605
C         48.89015        25.26492         0.49897
C         50.16193        27.40631         0.25899
C         48.90807        26.69133         0.31372
C         50.17961        28.80886         0.02765
C         48.93962        29.52720        -0.10738
C         50.23258        31.64588        -0.61595
C         48.94428        30.92826        -0.29765
C         50.21083        33.10496        -0.24018
C         48.98179        33.79564        -0.34488
C         50.21009        35.91450        -0.19653
C         48.98126        35.22520        -0.35985
C         50.28360        37.38910        -0.48091
C         48.95379        38.07634        -0.44513
C         50.05945        40.20188         0.16171
C         48.94620        39.48890        -0.36438
C         49.79320        41.53519         0.52432
C         48.88031        42.33962        -0.14039
C         50.28809        44.55864        -0.05190
C         49.00642        43.81123        -0.30867
C         50.24738        46.03784         0.02742
C         48.99830        46.70917        -0.06137
C         50.24837        48.85157         0.14546
C         48.96718        48.13605        -0.02133
C         50.25656        50.37196         0.04418
C         48.96814        51.04874        -0.19998
C         50.23773        53.10231        -0.61708
C         48.97408        52.43761        -0.43671
C         51.33790        21.01236         1.05536
C         52.60822        23.08375         0.56237
C         51.39934        22.42567         0.78667
C         52.57162        24.52703         0.10513
C         51.42584        25.26512         0.79977
C         52.62102        27.39498         0.32159
C         51.38873        26.71769         0.41580
C         52.64718        28.78551         0.11786
C         51.43264        29.50850        -0.01847
C         52.68226        31.64944         0.00999
C         51.46974        30.92420        -0.17498
C         52.66441        33.08121         0.13349
C         51.41739        33.79514         0.01947
C         52.63501        35.96395         0.30829
C         51.40605        35.23039         0.08234
C         52.67474        37.35104         0.29828
C         51.38309        38.07912         0.30583
C         52.68463        40.28694         0.48569
C         51.36098        39.55672         0.53295
C         52.77340        41.71630         0.45199
C         51.67987        42.57804         0.74401
C         52.78001        44.54446        -0.04038
C         51.57565        43.88882         0.30068
C         52.81127        46.04111         0.10338
C         51.47695        46.73933        -0.04138
C         52.74790        48.86047        -0.29334
C         51.51213        48.13736        -0.09581
C         52.73715        50.30591        -0.36482
C         51.52381        51.03745        -0.31559
C         51.43734        52.42983        -0.60939
C         55.06426        23.05773         0.38624
C         53.88351        22.41625         0.56697
C         55.19873        24.54023         0.16625
C         53.87819        25.27299         0.29542
C         55.13359        27.37743         0.53132
C         53.87380        26.63463         0.39509
C         55.15740        28.77566         0.36355
C         53.94828        29.48553        -0.18322
C         55.11486        31.65181         0.39987
C         53.91511        30.95566         0.14585
C         55.08165        33.07339         0.54556
C         53.87677        33.76431         0.42030
C         55.14388        35.95886         0.49473
C         53.85172        35.22729         0.79209
C         55.13001        37.38831         0.32513
C         53.90055        38.09898         0.34076
C         55.12838        40.22967         0.00725
C         53.88361        39.54437         0.28370
C         55.13170        41.62846        -0.20341
C         53.96160        42.38579         0.01093
C         55.20065        44.53585        -0.42238
C         53.96351        43.81620        -0.14965
C         55.19603        45.93682        -0.58670
C         53.88358        46.66683        -0.76616
C         55.19351        48.82327        -0.74261
C         53.95204        48.15816        -0.53322
C         55.16942        50.26082        -0.73406
C         54.00017        50.95690        -0.57733
C         57.57969        24.51391         1.11283
C         56.23271        25.18766         1.12657
C         57.55026        27.36966         0.90935
C         56.31489        26.67494         0.84531
C         57.57904        28.79257         0.78795
C         56.35777        29.50612         0.56348
C         57.59179        31.65127         0.69615
C         56.35751        30.93546         0.55490
C         57.60016        33.07498         0.74501
C         56.31314        33.81182         1.02310
C         57.59404        35.95774         0.49615
C         56.33718        35.26460         0.58619
C         57.60437        37.37477         0.29835
C         56.37136        38.09030         0.19763
C         57.62305        40.16907        -0.20698
C         56.37361        39.49763        -0.03168
C         57.65605        41.57910        -0.64120
C         56.34198        42.33924        -0.65698
C         57.63606        44.49256        -0.70754
C         56.40076        43.80914        -0.57511
C         57.63544        45.90993        -0.71068
C         56.41538        46.63521        -0.73251
C         57.65662        48.70722        -1.24533
C         56.40483        48.08079        -0.89701
C         58.74102        25.20289         1.13275
C         59.98698        27.35337         1.11399
C         58.77591        26.64915         1.06673
C         60.01114        28.74271         1.00887
C         58.82238        29.48820         0.84307
C         60.03367        31.67029         0.70762
C         58.82802        30.93353         0.74126
C         60.02649        33.05015         0.64003
C         58.81158        33.78343         0.69173
C         60.02445        35.97613         0.61506
C         58.81669        35.24602         0.62224
C         60.04135        37.34987         0.43650
C         58.84601        38.08111         0.24701
C         60.07225        40.25185        -0.11923
C         58.84725        39.49989        -0.01840
C         60.10446        41.60284        -0.35859
C         58.90945        42.36005        -0.57955
C         60.10306        44.51679        -0.98171
C         58.88881        43.75119        -0.75037
C         60.12277        45.86718        -0.98119
C         58.92661        46.67257        -0.56129
C         58.83961        48.03864        -1.18940
O         30.81826        22.41052        -1.61634
O         41.96159        54.59267        -1.85191
O         25.41794        28.09443        -1.99525
O         50.29722        49.69591         1.35723
O         56.91254        41.79938        -1.89835
O         37.27319        31.49125        -2.58900
O         43.82808        43.36609        -1.90405
O         35.95345        28.95139        -2.61863
O         40.94511        44.42074        -1.62129
O         34.15248        43.39221        -1.35122
O         29.37107        34.42515         1.35238
O         35.30711        44.85516         1.93785
O         27.07900        25.11180         1.40693
O         51.12227        38.59523         1.64772
O         47.34540        42.17362        -2.09676
O         40.96776        35.32801         0.93979
O         50.61611        42.09374         1.50189
O         36.24445        50.76452         2.58380
O         49.90670        44.13883        -1.43915
O         33.40197        26.84659        -2.29454
O         23.85140        38.18203         1.61415
H         23.83451        37.26734         1.96711
O         38.76149        55.18070        -1.94407
H         38.93203        54.24652        -2.22872
O         40.01228        52.84589        -1.88431
H         40.81117        53.26696        -2.29496
O         26.68833        30.64667         1.67825
H         27.57197        30.27849         1.89654
O         41.76996        48.06032         2.07821
H         41.68948        48.97840         2.41467
O         41.57609        34.14196        -2.49023
H         41.51433        33.29324        -2.97796
O         51.72683        25.21794         2.22841
H         51.02475        25.71104         2.70151
O         35.28433        24.67667         1.34214
H         36.04730        24.17623         1.70418
O         32.93055        49.88310         3.05316
H         33.68161        49.26128         3.23883
O         32.12628        48.17885        -1.16647
H         31.31863        48.39011        -1.69105
O         50.30999        31.64447        -2.10753
H         49.49710        32.08682        -2.43510
O         33.53878        52.29477        -0.47994
H         33.52584        53.22299        -0.79836
O         40.47378        22.87934        -2.06575
H         39.69892        23.30270        -2.49442
O         29.86266        49.10780        -0.94471
H         29.08657        49.70562        -0.88974
O         50.75114        37.50400        -1.87513
H         50.08383        37.07499        -2.45155
O         53.23504        46.27298         1.48225
H         52.52611        45.95583         2.07996
O         53.48000        46.47757        -2.15227
H         54.20105        46.80769        -2.72775
O         29.67602        48.07902         2.54806
H         28.97966        47.61375         3.05653
O         27.96455        40.07451         2.16450
H         27.11617        40.43684         2.49865
O         29.02254        26.00016        -2.09448
H         28.99351        26.74786        -2.72756
O         25.25803        33.06004         1.83553
H         25.83755        32.32579         2.15429
O         24.27839        39.47797        -1.76794
H         24.33450        40.39365        -2.11247
O         29.58830        25.76512         1.50393
H         28.75374        25.82992         2.02540
O         42.90317        44.12650         1.50723
H         42.41399        44.79623         2.03117
O         45.00484        23.37099         2.39596
H         45.79809        23.86462         2.69607
O         45.19094        50.17644        -2.10716
H         45.13717        51.09785        -2.44053
O         39.94051        18.95642         2.12920
H         39.94436        18.04160         2.48512
O         42.81247        53.47007         1.52101
H         43.00352        52.64262         2.01251
O         55.68479        25.01293         2.46461
H         56.29168        25.44748         3.09920
O         59.09825        46.91631         0.88900
H         58.30140        47.40174         1.19274
O         53.74094        35.22255         2.27574
H         53.56470        36.14630         2.55918
O         35.32244        48.34073         3.01050
H         35.97010        48.93930         3.45118
O         55.70252        24.75089        -1.18296
H         54.93934        24.78111        -1.79657
O         33.72432        20.67180        -2.11813
H         32.88971        21.15555        -2.30289
O         42.91096        37.30491         1.42351
H         42.21063        36.66402         1.70202
O         52.28507        24.50213        -1.32575
H         52.80808        23.77752        -1.72773
O         54.09379        29.41935        -1.65621
H         53.31548        29.87726        -2.04205
O         40.24352        54.60895         1.37265
H         41.11513        54.25011         1.67516
O         56.19962        33.85345         2.48830
H         55.33449        34.29428         2.68974
O         31.31602        33.93956        -2.36944
H         31.48814        33.05750        -2.76446
H         21.98373        26.83748        -0.36092
H         21.99120        29.28126        -0.30680
H         22.00826        31.22327        -0.61560
H         22.02149        33.64802        -0.54793
H         22.19218        35.50153        -1.04618
H         22.14243        37.91526        -0.81125
H         22.02938        39.79703         0.03925
H         22.08029        42.14856         0.58561
H         22.07949        44.03508         0.65627
H         22.09650        46.47465         0.91608
H         25.31539        23.40632        -0.10098
H         23.20757        24.61060        -0.43728
H         25.42233        49.85618         1.20533
H         23.31716        48.60522         1.11759
H         27.06122        22.53279         0.71977
H         27.05252        50.81301         1.18320
H         29.06776        21.27879         0.14982
H         29.14704        52.03812         1.33070
H         33.00876        19.23404         0.51426
H         30.86666        20.43976         0.67256
H         33.04258        53.96780         2.12831
H         30.87918        52.78153         2.32550
H         34.45954        18.20299        -0.70135
H         34.33780        54.97346         0.58445
H         36.55743        16.97351        -0.36115
H         36.38225        56.20365        -0.03006
H         40.31645        14.88505         0.32283
H         38.20587        16.05555        -0.13130
H         40.21121        58.42734        -0.03051
H         38.09109        57.23971         0.13591
H         42.75268        14.91720         0.63687
H         42.64388        58.43939        -0.67718
H         44.86010        16.15404         0.88434
H         44.78034        57.25866        -0.82131
H         48.54785        18.30766         1.11264
H         46.45128        17.10432         1.06271
H         48.59871        55.15248        -0.63937
H         46.47160        56.32883        -0.68907
H         50.16643        19.26314         1.29611
H         50.24980        54.17938        -0.83015
H         52.26819        20.44769         1.20221
H         52.35294        52.99552        -0.83046
H         55.98786        22.46069         0.36393
H         53.90857        21.32872         0.73217
H         56.10722        50.81930        -0.86040
H         54.04089        52.05477        -0.58960
H         57.60408        23.41701         1.19051
H         57.64708        49.74820        -1.60137
H         59.70133        24.66731         1.18728
H         60.92954        26.79927         1.23094
H         60.98183        29.25395         1.05527
H         61.00018        31.14921         0.70972
H         60.98837        33.57498         0.57556
H         60.98394        35.46010         0.74975
H         61.01133        37.86405         0.43313
H         61.02772        39.73361         0.03689
H         61.07605        42.11667        -0.36394
H         61.02430        43.96763        -1.22683
H         61.05813        46.40568        -1.19664
H         59.77328        48.54821        -1.47146
