         232
 CSIRO Nanostructure Databank - Neutral Graphene Oxide Data Set
C        -11.53286         0.69793        -0.03582
C        -10.47224         1.70839         0.01054
C         -8.68697         0.65047        -0.55216
C         -7.51551         1.25654         0.18156
C         -6.33329         0.74096        -0.58412
C         -5.10498         1.54467        -0.78898
C         -3.83960         0.76029        -1.20669
C         -2.55958         1.57235        -0.98679
C         -1.24619         0.79011        -1.02537
C         -0.04279         1.57699        -0.52211
C          1.18371         0.90676        -0.50936
C          2.40761         1.61769        -0.33548
C          3.70684         0.92197        -0.58986
C          4.98715         1.69917        -0.47030
C          6.29062         0.99433        -0.21388
C          7.47330         1.80051         0.15506
C          8.73512         1.10085         0.39208
C         10.00981         1.84405        -0.07243
C         11.09439         0.96995        -0.57986
C        -10.12551         2.64112         0.93125
C         -8.76945         3.34576         1.08153
C         -7.54287         2.74417         0.37426
C         -6.35958         3.43673         0.35049
C         -5.09056         2.87347        -0.12692
C         -3.90548         3.56410         0.00258
C         -2.61297         2.97662        -0.46350
C         -1.33436         3.66097        -0.11188
C         -0.08145         2.97382        -0.25741
C          1.13992         3.68086        -0.02221
C          2.38589         2.99469        -0.08216
C          3.63631         3.72732         0.37761
C          4.94966         3.12951        -0.08080
C          6.11845         3.83085         0.00658
C          7.43301         3.17482        -0.01471
C          8.65026         3.91060        -0.29072
C          9.82759         3.23305        -0.51803
C         -8.80180         4.83996         0.81311
C         -7.64260         5.55318         0.76404
C         -6.33532         4.81335         0.98436
C         -5.09556         5.60525         0.68454
C         -3.91833         4.95165         0.43709
C         -2.62774         5.67518         0.53026
C         -1.35134         5.01114         0.19950
C         -0.13380         5.77896         0.23814
C          1.10763         5.10885         0.15865
C          2.32618         5.87660         0.16459
C          3.58517         5.22400         0.17710
C          4.77190         5.97298         0.18325
C          6.08334         5.29027         0.25163
C          7.33845         6.08792        -0.02230
C          8.56599         5.39696        -0.59583
C         -7.61338         7.00145         0.65784
C         -6.46429         7.73235         0.79083
C         -5.13250         7.06936         1.06404
C         -4.01548         7.83451         0.32449
C         -2.67465         7.16352         0.55192
C         -1.46205         7.90641         0.12251
C         -0.16852         7.21443         0.22118
C          1.00646         7.97331         0.17279
C          2.27426         7.30228         0.16342
C          3.48118         8.05434         0.11761
C          4.73037         7.39244         0.09869
C          5.95458         8.15477        -0.10361
C          7.16789         7.52720        -0.27567
C         -6.44870         9.18042         0.83617
C         -5.29431         9.91073         0.88498
C         -3.98922         9.30835         0.68350
C         -2.82421        10.02112         0.65003
C         -1.53416         9.42141         0.22338
C         -0.25246        10.10816         0.36174
C          0.95221         9.42990         0.22586
C          2.19764        10.14886         0.18271
C          3.41554         9.50134         0.08430
C          4.65194        10.23623        -0.07205
C          5.84527         9.59758        -0.20107
C        -11.35590        -0.58602        -0.47293
C        -10.12256        -1.38665        -0.61332
C         -8.80974        -0.72654        -0.62188
C         -7.52394        -1.41580        -0.64211
C         -6.31187        -0.73942        -0.65524
C         -5.01799        -1.39151        -0.59297
C         -3.81687        -0.63648        -0.60841
C         -2.58029        -1.24940        -0.26955
C         -1.33973        -0.58701        -0.37361
C         -0.10239        -1.29049        -0.21273
C          1.15601        -0.58300        -0.57423
C          2.45653        -1.33080        -0.38057
C          3.75511        -0.58171        -0.46736
C          5.02724        -1.26456        -0.05582
C          6.31391        -0.47651         0.05149
C          7.47628        -1.11522         0.79441
C          8.78832        -0.40242         0.54494
C         10.02877        -1.17772         0.15680
C         11.09718        -0.38160        -0.49655
C        -10.28051        -2.75674        -0.45634
C         -9.24571        -3.65134         0.13321
C         -7.34994        -2.83030        -1.07380
C         -6.27415        -3.51829        -0.26500
C         -4.98686        -2.80017        -0.37387
C         -3.81289        -3.47954        -0.04176
C         -2.60547        -2.65673         0.18285
C         -1.28931        -3.38311         0.32658
C         -0.03950        -2.66660         0.03740
C          1.21066        -3.39625         0.19797
C          2.43129        -2.67112         0.20964
C          3.64610        -3.29951         0.73536
C          4.95643        -2.58284         0.65842
C          6.24581        -3.34641         0.82387
C          7.46344        -2.63159         0.21310
C          8.79097        -3.36680         0.32472
C          9.95334        -2.65144         0.02892
C         -8.86166        -4.89855        -0.34085
C         -7.63327        -5.68062        -0.03758
C         -6.34305        -4.94136         0.17737
C         -5.04697        -5.66222         0.11969
C         -3.81527        -4.89437         0.08655
C         -2.57816        -5.61935         0.18663
C         -1.31299        -4.85092         0.09488
C         -0.00019        -5.56258         0.15826
C          1.21808        -4.79358         0.39712
C          2.38429        -5.61091         0.90360
C          3.69216        -4.82339         0.93733
C          4.98510        -5.49019         0.66907
C          6.18579        -4.81704         0.69272
C          7.46200        -5.51405         0.43907
C          8.69611        -4.77621         0.34638
C         -7.56063        -7.03839        -0.12393
C         -6.30478        -7.80601         0.26795
C         -5.03777        -7.02836         0.00226
C         -3.76481        -7.71611        -0.42550
C         -2.54629        -6.99684         0.07656
C         -1.30723        -7.76345         0.31094
C         -0.00474        -7.02544         0.44912
C          1.26349        -7.73490         0.20738
C          2.46288        -6.99657         0.29055
C          3.68744        -7.64146         0.10219
C          4.99033        -6.87438         0.03752
C          6.17732        -7.68445         0.56254
C          7.45622        -6.89651         0.36368
C         -6.20458        -9.22026        -0.25305
C         -5.02306        -9.87061        -0.37202
C         -3.73247        -9.21025        -0.23138
C         -2.53633        -9.87921        -0.17018
C         -1.25446        -9.20268        -0.03579
C         -0.02907        -9.81963        -0.18075
C          1.24593        -9.11800        -0.08584
C          2.49738        -9.75131        -0.28386
C          3.70054        -9.02962        -0.19813
C          5.00366        -9.67894        -0.37129
C          6.16424        -9.06502        -0.05945
O          7.27162        -2.57207        -1.14594
O         -2.57946         2.69250        -1.92623
O          4.38298         1.44517        -1.78257
O         -0.72902        -7.43306         1.64406
O          6.70798         0.03566        -1.24713
O         -3.72049        -7.55908        -1.89973
H         -3.64063        -6.60071        -2.09658
O         -7.68186        -3.21809        -2.18547
O         -6.36825        -7.95591         1.73245
H         -6.44072        -7.05744         2.11969
O          3.63157         3.51606         1.83922
H          4.34476         4.07155         2.22261
O         -4.30241         7.72947        -1.08829
H         -3.56327         8.17885        -1.56375
O          2.02006        -5.89233         2.29393
H          2.31807        -5.11667         2.82559
O         -6.44177        -3.87218         1.17619
O          4.58124        -1.29668        -1.43672
O          9.63541         1.72565         1.33660
O          1.79185        -1.22747        -1.71770
O          5.25966        -6.67813        -1.38049
H          4.53581        -6.14771        -1.77351
O         -3.91601         0.51897        -2.62518
H         -3.62175         1.34192        -3.07516
O         -9.59836         1.52822        -1.09825
O         -4.94895         7.14588         2.50568
H         -4.01857         6.85166         2.68617
O          3.57255        -3.91695         2.07460
O         -2.49931         6.45951         1.81497
O         -0.61225        -5.21009        -1.15233
O         -6.13457         1.45303        -1.83892
O         -8.84101        -3.12432         1.31143
H         -8.06514        -3.61951         1.67543
O         -2.00189        -2.91410         1.50735
O          5.62930        -2.67839         1.94608
O          6.97659         5.70883         1.34569
O          9.75910        -0.76846         1.56781
O          6.00439        -7.84009         1.99799
H          6.71296        -8.42740         2.33301
O          7.27541        -1.04017         2.19638
H          8.16108        -1.08866         2.62484
O         -1.66754         8.69328        -1.08912
O          8.51833         5.60289        -2.01555
H          9.22162         5.06555        -2.43382
O         -8.49384         3.14035         2.50873
H         -7.68076         3.66859         2.73585
O         -1.00145         0.54055        -2.43575
H         -0.16643         0.03322        -2.52784
O         -6.22794         4.59880         2.44800
H         -5.97310         5.47584         2.83372
O         -7.49145         0.68246         1.51999
H         -7.93172         1.32655         2.13077
H         11.92216        -0.93914        -0.96670
H         11.91079         1.46583        -1.12879
H         10.68888         3.76272        -0.95629
H          9.49126         5.90080        -0.18547
H          8.04885         8.11489        -0.57537
H          6.76904        10.17568        -0.35047
H          4.60231        11.33406        -0.11841
H          2.16658        11.24876         0.17815
H         -0.24730        11.18930         0.56652
H         -2.83470        11.09683         0.88717
H         -5.34658        11.00518         0.98881
H         -7.41728         9.70249         0.87582
H         -8.57293         7.52134         0.50570
H         -9.77205         5.35243         0.72354
H        -10.78818         2.78452         1.79824
H        -12.54996         1.00056         0.26066
H        -12.27132        -1.20252        -0.48852
H        -11.30656        -3.15956        -0.52240
H         -9.39966        -5.24392        -1.23832
H         -8.47484        -7.62370        -0.30730
H         -7.14437        -9.77661        -0.39163
H         -5.01999       -10.94528        -0.61559
H         -2.53432       -10.98097        -0.18386
H          0.00098       -10.89302        -0.42470
H          2.53119       -10.83044        -0.49717
H          5.01304       -10.71097        -0.75517
H          7.12058        -9.59906        -0.17764
H          8.40839        -7.43964         0.24423
H          9.62944        -5.36491         0.35504
H         10.86119        -3.18674        -0.29383
