         424
 CSIRO Nanostructure Databank - Neutral Graphene Oxide Data Set
C          1.42601         3.82544         2.89257
C          0.26029         4.52900         2.93209
C          1.34820         6.63553         2.30408
C          0.22503         5.93916         2.61726
C          1.38904         8.14071         2.14128
C          0.07482         8.78395         1.79539
C          1.24443        10.80988         1.12587
C          0.04318        10.09631         1.44191
C          1.30830        12.21883         1.08326
C          0.21643        13.02074         1.53643
C          1.35979        15.06694         0.88500
C          0.23748        14.39474         1.43425
C          1.34024        16.50643         0.61212
C          0.11848        17.23440         0.65784
C          1.24358        19.28201        -0.04699
C          0.07382        18.57372         0.34378
C          1.21979        20.68018        -0.35605
C         -0.01744        21.45738        -0.36086
C          1.12864        23.37674        -1.47538
C         -0.08852        22.70345        -0.87354
C          1.10487        24.90195        -1.41147
C         -0.08992        25.62498        -1.49580
C          1.10600        27.75679        -1.41632
C         -0.09303        27.02033        -1.47965
C          1.11805        29.20630        -1.32900
C         -0.06769        29.96806        -1.33763
C          1.16741        32.04541        -1.02122
C         -0.04109        31.35487        -1.22271
C          1.23991        33.51440        -1.02220
C          0.12785        34.31316        -1.46607
C          1.32582        36.37959        -0.98432
C          0.16210        35.69649        -1.39550
C          1.36240        37.78009        -0.78546
C          3.81354         3.76327         2.30099
C          2.65720         4.46522         2.50331
C          3.61538         6.38973         1.21083
C          2.70648         5.97336         2.37199
C          3.67181         7.89980         1.02848
C          2.51854         8.62809         1.24981
C          3.69253        10.70655         0.47337
C          2.38147         9.97901         0.59493
C          3.69020        12.11320         0.31599
C          2.49098        12.88496         0.60362
C          3.65272        14.99684        -0.05860
C          2.48713        14.29408         0.51745
C          3.82646        16.46231         0.29202
C          2.50849        17.18857         0.22811
C          3.67341        19.22923        -0.57660
C          2.48180        18.56789        -0.11063
C          3.62661        20.60873        -0.84128
C          2.41447        21.32765        -0.70004
C          3.64340        23.50635        -1.21055
C          2.37100        22.83953        -0.75900
C          3.58986        24.91768        -1.36160
C          2.32980        25.61869        -1.39075
C          3.59016        27.76516        -1.41890
C          2.34205        27.04575        -1.41273
C          3.59913        29.17507        -1.23951
C          2.36448        29.88732        -1.17148
C          3.61085        31.94982        -0.61972
C          2.37212        31.29657        -0.94022
C          3.51168        33.31686         0.00077
C          2.41265        34.13426        -0.63664
C          3.62617        36.25689         0.00963
C          2.61017        35.60202        -0.87627
C          3.62909        37.64115         0.15881
C          2.48480        38.40506        -0.27188
C          6.21663         3.53706         1.58558
C          5.00421         4.40880         1.78712
C          6.10378         6.28272         0.59971
C          4.96051         5.69775         1.33227
C          6.02878         7.71176         0.11596
C          4.83609         8.52482         0.45456
C          6.13091        10.62118         0.03341
C          4.87690         9.94170         0.30334
C          6.12571        12.05340        -0.09986
C          4.90525        12.76525        -0.03076
C          6.16682        14.92862        -0.46693
C          4.89310        14.20246        -0.33723
C          6.15622        16.32617        -0.68175
C          4.94354        17.11803        -0.49391
C          5.99960        19.08967        -1.64515
C          4.88740        18.45356        -0.81271
C          6.11384        20.58807        -1.37620
C          4.79277        21.31688        -1.50132
C          6.10017        23.45740        -1.13845
C          4.85506        22.79392        -1.20114
C          6.11518        24.94239        -1.45588
C          4.78905        25.65223        -1.51479
C          6.15138        27.79260        -1.66073
C          4.81786        27.04897        -1.53946
C          6.06846        29.22409        -1.19321
C          4.85938        29.88222        -1.08014
C          6.07212        31.99178        -0.45230
C          4.82468        31.29219        -0.71603
C          6.02786        33.40538        -0.09310
C          4.82364        34.04846         0.07920
C          6.05076        36.19687         0.54133
C          4.74766        35.45293         0.61265
C          5.99901        37.63067         0.81530
C          4.78079        38.30133         0.71681
C          8.69554         3.66072         1.44437
C          7.47377         4.31271         1.28203
C          8.62688         6.36548         0.56195
C          7.42058         5.63475         0.79048
C          8.60056         7.73520         0.15886
C          7.32503         8.40923        -0.33254
C          8.57103        10.59937        -0.23706
C          7.33470         9.90752        -0.09499
C          8.57500        12.03151        -0.36674
C          7.35635        12.75271        -0.34060
C          8.59845        14.87757        -0.70972
C          7.36830        14.18573        -0.51332
C          8.59529        16.28259        -0.96486
C          7.36585        16.97491        -1.02320
C          8.64304        19.11754        -1.58726
C          7.33896        18.36171        -1.52650
C          8.62953        20.64095        -1.69168
C          7.29601        21.27065        -1.26165
C          8.57328        23.36167        -0.76457
C          7.30648        22.71879        -1.02166
C          8.67372        24.65747        -0.22682
C          6.93582        25.79456        -0.53451
C          8.41573        27.73146        -0.12721
C          7.21203        27.08068        -0.80826
C          8.54299        29.18092        -0.51941
C          7.38546        29.95252        -1.12062
C          8.54025        32.02618        -0.31320
C          7.28929        31.34183        -0.54937
C          8.50674        33.44750        -0.03350
C          7.28724        34.11860         0.07285
C          8.51646        36.33708         0.30109
C          7.23863        35.53924         0.35516
C          8.44191        37.63727         1.07407
C          7.20603        38.28765         1.18203
C         11.15024         3.63694         1.24208
C          9.91642         4.32059         1.16005
C         11.10115         6.40339         0.58611
C          9.87977         5.70216         0.77275
C         11.04849         7.78794         0.28823
C          9.81199         8.45227         0.05103
C         11.03486        10.59558        -0.35142
C          9.81041         9.88573        -0.21346
C         11.04344        12.01675        -0.53261
C          9.81351        12.73471        -0.53112
C         11.06272        14.85441        -0.77031
C          9.82585        14.15013        -0.68303
C         11.06881        16.27801        -0.89598
C          9.84743        17.00041        -1.05624
C         11.10318        19.12036        -1.06560
C          9.88104        18.40776        -1.18905
C         11.10757        20.56683        -1.02436
C          9.86568        21.28966        -1.10178
C         11.03705        23.43456        -0.69139
C          9.83146        22.66731        -0.87705
C         11.02270        24.81781        -0.63148
C          9.79160        25.53037        -0.40070
C         10.97718        27.69439        -0.29660
C          9.74124        26.95220        -0.32606
C         10.98248        29.11988        -0.16677
C          9.73426        29.85988        -0.34084
C         11.04825        32.05222        -0.34259
C          9.73996        31.31073        -0.33979
C         10.96933        33.42045         0.29127
C          9.75646        34.13326         0.27529
C         10.90869        36.15384         1.04451
C          9.73945        35.51323         0.61694
C         10.87676        37.54904         1.45960
C          9.63089        38.23487         1.50700
C         13.59752         3.56775         0.87891
C         12.36243         4.28164         0.92357
C         13.57383         6.30572         0.26909
C         12.35462         5.68385         0.62807
C         13.62214         7.77616         0.17494
C         12.29367         8.54982         0.24956
C         13.51266        10.58516        -0.47384
C         12.29177         9.92634        -0.24423
C         13.52164        12.00126        -0.66451
C         12.28100        12.71383        -0.63253
C         13.52998        14.84334        -0.65756
C         12.28993        14.13696        -0.70797
C         13.50965        16.25153        -0.64345
C         12.30362        16.98048        -0.83331
C         13.55923        19.12681        -0.75336
C         12.32061        18.41196        -0.87487
C         13.55795        20.55573        -0.72581
C         12.31404        21.24741        -0.80094
C         13.56087        23.45016        -0.70132
C         12.30391        22.69121        -0.38942
C         13.54307        24.84828        -0.66256
C         12.26689        25.60727        -0.92056
C         13.45464        27.68637        -0.16886
C         12.24001        27.01299        -0.36970
C         13.45553        29.09980         0.07701
C         12.21295        29.81848         0.00477
C         13.42664        31.91744         0.43681
C         12.23825        31.24360         0.11721
C         13.41115        33.33690         0.71846
C         12.16948        34.05768         0.69677
C         13.33625        36.08776         1.48614
C         12.13772        35.42852         1.10041
C         13.29945        37.47684         1.87346
C         12.05571        38.16991         1.87134
C         16.03152         3.34958         0.29015
C         14.77543         4.17806         0.47090
C         15.96926         6.18758        -0.43306
C         14.75947         5.55764         0.13018
C         15.95717         7.67406        -0.73391
C         14.76290         8.45886        -0.41484
C         15.96320        10.53383        -0.96746
C         14.76148         9.85334        -0.57643
C         15.98251        11.97118        -1.02878
C         14.75355        12.69073        -0.81330
C         16.01644        14.79033        -0.73127
C         14.77938        14.11613        -0.71174
C         16.06914        16.21275        -0.40024
C         14.73839        16.98546        -0.35755
C         16.01779        19.10914        -0.51736
C         14.78010        18.43196        -0.56748
C         16.01996        20.53989        -0.52624
C         14.78925        21.25973        -0.57550
C         15.99480        23.40702        -0.52676
C         14.79997        22.71356        -0.60936
C         16.03031        24.88418        -0.82635
C         14.74187        25.59421        -0.54446
C         15.94646        27.66824         0.02314
C         14.73020        26.97997        -0.25113
C         15.93149        29.06889         0.32552
C         14.68033        29.78817         0.29274
C         15.88608        31.89361         0.76552
C         14.67512        31.19985         0.52213
C         15.86328        33.30754         1.06183
C         14.60148        33.99931         1.09256
C         15.77362        36.05713         1.82483
C         14.57005        35.38462         1.46617
C         15.72810        37.44053         2.22105
C         14.48430        38.12225         2.24360
C         18.54196         3.49950         0.22849
C         17.30425         4.15155         0.11312
C         18.48111         6.22840        -0.42514
C         17.28027         5.52030        -0.22505
C         18.53684         7.73795        -0.54843
C         17.21882         8.41184        -0.84857
C         18.42802        10.46017        -1.50120
C         17.18440         9.77830        -1.06367
C         18.41769        11.97311        -1.61323
C         17.18428        12.69194        -1.23625
C         18.45194        14.84343        -1.15141
C         17.23279        14.11093        -1.05738
C         18.48694        16.25736        -0.92852
C         17.29275        16.97654        -0.63998
C         18.50610        19.11190        -0.60671
C         17.27267        18.39009        -0.54782
C         18.50478        20.54453        -0.49008
C         17.26852        21.22425        -0.42490
C         18.55180        23.42553        -0.25541
C         17.23513        22.67776        -0.24486
C         18.51418        24.88720        -0.54737
C         17.24120        25.59824        -0.32087
C         18.46298        27.64632         0.21602
C         17.21881        26.95384        -0.04015
C         18.38392        28.97160         0.93251
C         17.12715        29.75737         0.64029
C         18.34700        31.86448         1.08382
C         17.13002        31.16696         0.82782
C         18.37155        33.37152         1.03182
C         17.04777        34.01000         1.34186
C         18.22358        36.06087         2.12723
C         17.01902        35.37342         1.75828
C         18.15985        37.42881         2.54284
C         16.91835        38.10090         2.57117
C         19.73321         4.18398        -0.00651
C         20.95352         6.28088        -0.60578
C         19.71620         5.55193        -0.33044
C         20.95665         7.52103        -1.12900
C         19.67063         8.23477        -1.47518
C         20.87235        10.49467        -1.46897
C         19.72947         9.75744        -1.40519
C         20.86376        11.93774        -1.53210
C         19.71764        12.67430        -1.55939
C         20.94984        14.88523        -1.27303
C         19.69494        14.18359        -1.72068
C         20.95227        16.20650        -0.99008
C         19.72727        16.97965        -0.92329
C         20.95813        19.14300        -0.75886
C         19.73269        18.38851        -0.75079
C         20.97015        20.50289        -0.64638
C         19.76314        21.27398        -0.51083
C         21.01275        23.46667        -0.43791
C         19.80255        22.68014        -0.46029
C         21.02886        24.82698        -0.33280
C         19.80658        25.64446        -0.48735
C         20.90546        27.77360         0.24635
C         19.71177        27.04849        -0.00961
C         20.86428        29.11581         0.61914
C         19.65289        29.77729         0.85024
C         20.77494        31.90930         1.44928
C         19.59659        31.18368         1.12101
C         20.72797        33.25370         1.82118
C         19.55008        33.99859         1.73786
C         20.63324        36.08729         2.55578
C         19.48675        35.38252         2.13859
C         20.56212        37.43375         2.94164
C         19.35058        38.10289         2.93727
O          8.08009        18.48606        -2.80482
O         18.23846        11.11871        -2.80639
O          7.58275        25.12701         0.51808
O         15.77247         6.64825        -1.82213
O         13.15281         8.39310         1.43199
O          3.94101        14.60583        -1.42321
O         17.89222        23.13327         1.02190
O          5.71607         6.58692        -0.81747
O         15.41054        16.54897         0.87019
O         19.15054        25.33499        -1.79730
O         19.35681         7.90604        -2.84686
H         18.70626         8.55840        -3.18390
O          8.67128        36.73071        -1.11010
H          9.49647        37.25694        -1.17463
O          3.03794         5.88378        -0.02230
H          3.72088         6.01610        -0.72131
O          3.07863        33.07351         1.39164
H          3.28798        33.90079         1.89702
O          7.37892         8.29286        -1.78933
H          6.95818         7.42843        -2.01025
O         12.30050        22.60919         1.10080
H         12.38202        23.52493         1.44509
O          2.21135        23.27581         0.63154
H          2.98633        22.95903         1.14078
O         19.61149        14.39668        -3.17825
H         19.60703        15.36546        -3.33084
O         16.17884        24.94865        -2.32090
H         17.13184        25.09365        -2.52311
O          6.50788        27.80429        -3.06248
H          7.19846        28.50322        -3.18069
O          4.42598        35.33277         2.07058
H          5.23566        35.00293         2.51695
O          8.17154        27.72224         1.31778
H          7.98640        26.78535         1.56157
O          4.24895        16.45981         1.69813
H          4.22996        17.38581         2.01914
O         18.25872        28.61029         2.37854
H         19.08138        28.13478         2.62427
O          5.55842        18.90123        -3.02667
H          6.37459        18.79660        -3.57068
O         12.24269        25.79204        -2.38594
H         13.11009        26.16949        -2.64756
O          6.76965        25.03774        -2.75273
H          6.17855        24.63166        -3.42088
O          3.36110         6.47349         3.59251
H          2.94652         6.01406         4.35358
O         18.60377        33.68590        -0.41261
H         19.46661        33.28317        -0.65190
O          1.97867         9.67542        -0.80712
H          2.70296         9.14481        -1.20457
O          1.74356         8.66876         3.47324
H          2.53809         8.15305         3.76209
O          8.72064        20.97385        -3.10939
H          8.36677        20.20132        -3.60834
O         18.91800         8.22540         0.78125
H         18.28470         7.86274         1.43550
O         11.32529        32.31965        -1.77496
H         12.17920        32.80099        -1.82012
O         15.85921         2.49709        -0.86135
H         15.78775         3.07100        -1.65224
O          4.47627        21.31442        -2.93494
H          4.62023        20.38673        -3.25662
O          6.41619         2.67275         2.71309
H          6.62693         3.22895         3.49050
O          1.21395        23.00339        -2.87082
H          0.42818        23.35841        -3.33476
O          7.79074        30.15732        -2.54895
H          7.25502        30.90026        -2.90250
O          3.22023        35.67906        -2.25261
H          3.30256        36.63413        -2.46679
H          1.43834         2.74537         3.10098
H         -0.68194         4.02941         3.19625
H         -0.75698         6.43287         2.64093
H         -0.86616         8.25309         1.99431
H         -0.92692        10.61267         1.37447
H         -0.66990        12.53244         1.96320
H         -0.63487        14.96590         1.77940
H         -0.81349        16.72440         0.93528
H         -0.89082        19.09569         0.39402
H         -0.93522        20.99111         0.02570
H         -1.06397        23.21192        -0.90774
H         -1.05399        25.09970        -1.55372
H         -1.06027        27.53940        -1.51047
H         -1.04054        29.47269        -1.45764
H         -0.99095        31.90503        -1.26678
H         -0.79410        33.81997        -1.80259
H         -0.74347        36.27650        -1.62998
H          0.46255        38.37240        -1.01108
H          3.84633         2.67658         2.46758
H          2.49000        39.49414        -0.12275
H          5.99842         2.85904         0.71269
H          4.73767        39.38460         0.90306
H          8.70552         2.61718         1.78972
H          7.16284        39.31498         1.57504
H         11.15649         2.57049         1.51087
H          9.59964        39.24498         1.94358
H         13.59711         2.49301         1.11357
H         12.03101        39.22147         2.19369
H         16.14957         2.66275         1.16896
H         14.45759        39.18089         2.54124
H         18.56420         2.43109         0.48615
H         16.88216        39.15594         2.88035
H         20.69442         3.65493         0.06399
H         21.90383         5.75912        -0.41396
H         21.91392         7.99716        -1.38762
H         21.85478        10.00210        -1.45715
H         21.84488        12.43237        -1.55273
H         21.90708        14.34624        -1.30311
H         21.90715        16.69767        -0.75571
H         21.91593        18.61790        -0.87135
H         21.93722        21.02305        -0.66793
H         21.97739        22.93994        -0.40771
H         21.99640        25.33399        -0.20866
H         21.87948        27.30745         0.05020
H         21.81328        29.66756         0.66477
H         21.73495        31.38346         1.52974
H         21.64733        33.71069         2.21281
H         21.61327        35.59230         2.56939
H         21.47893        37.95550         3.25007
H         19.29225        39.15630         3.24614
