         404
 CSIRO Nanostructure Databank - Neutral Graphene Oxide Data Set
C          1.14113         3.83950         1.76597
C         -0.06397         4.51534         1.62903
C          1.10850         6.65350         1.39539
C         -0.08643         5.90006         1.43274
C          1.10955         8.07976         1.13560
C         -0.08607         8.78644         0.86629
C          1.14910        10.86824         0.52952
C         -0.06550        10.13339         0.56994
C          1.16656        12.26036         0.12903
C         -0.03252        12.92520        -0.23281
C          1.21242        14.91039        -0.88410
C         -0.00818        14.20222        -0.74450
C          1.25174        16.19087        -1.54947
C          0.13626        16.61886        -2.30371
C          1.39437        18.54656        -3.00214
C          0.23038        17.76347        -3.06875
C          1.30199        20.82286        -3.29486
C          0.11383        21.52327        -3.48417
C          1.19879        23.52256        -2.64336
C          0.04908        22.86191        -3.08111
C          1.05410        25.03404        -2.46074
C          0.21531        25.41733        -1.26737
C          1.30507        27.63151        -1.20288
C          0.29912        26.66332        -0.76299
C          1.22061        28.98313        -0.86867
C          0.00680        29.57625        -0.37573
C          1.09595        31.76834        -0.06571
C         -0.09980        30.90631        -0.09697
C          1.11371        33.04988         0.77262
C         -0.10236        33.56761         1.43257
C          1.20498        35.36646         2.44013
C         -0.04758        34.68911         2.19289
C          1.24106        36.66093         3.00874
C          3.60225         3.87207         1.81445
C          2.36844         4.55305         1.73606
C          3.57594         6.71834         1.62161
C          2.34985         5.98043         1.58212
C          3.54838         8.12273         1.45443
C          2.33832         8.80325         1.14008
C          3.60536        10.94880         0.82390
C          2.36097        10.20957         0.84369
C          3.61933        12.32411         0.44349
C          2.39167        12.97162         0.06463
C          3.62018        15.10038        -0.38734
C          2.40935        14.32486        -0.40070
C          3.59151        16.43195        -0.84995
C          2.44142        16.97907        -1.50795
C          3.63947        19.17749        -2.03062
C          2.48290        18.26751        -2.15538
C          3.60267        20.56940        -2.30416
C          2.43316        21.37055        -2.64596
C          3.65214        23.50374        -2.25366
C          2.41766        22.79881        -2.48211
C          3.67850        24.95922        -2.39177
C          2.38104        25.77392        -2.44049
C          3.66110        27.89719        -2.01079
C          2.44029        27.14682        -1.93312
C          3.66264        29.24261        -1.54463
C          2.33215        29.92457        -1.29057
C          3.57238        31.65876         0.11904
C          2.38878        31.11614        -0.35219
C          3.58355        32.80355         1.01835
C          2.41554        33.48427         1.33065
C          3.64515        35.34787         2.41810
C          2.42612        34.71112         2.10890
C          3.67595        36.69056         2.88999
C          2.44013        37.33149         3.18603
C          6.05636         3.87335         1.71917
C          4.82943         4.56911         1.75695
C          6.06003         6.69711         1.69076
C          4.82862         6.01150         1.72348
C          6.09088         8.16293         1.79438
C          4.76740         8.91517         1.65195
C          6.04829        11.01304         1.18269
C          4.81696        10.31249         1.19347
C          6.02806        12.40251         0.86710
C          4.84044        13.05828         0.46691
C          6.03047        15.20395         0.11788
C          4.84982        14.47736         0.08857
C          6.06752        16.64572        -0.19945
C          4.76421        17.30597        -0.71104
C          6.06964        19.24833        -1.43075
C          4.83985        18.58947        -1.44962
C          6.16064        20.62424        -1.94479
C          4.86668        21.34710        -2.25708
C          6.09279        23.53316        -1.88067
C          4.86626        22.82270        -2.10918
C          6.11640        24.98637        -1.90322
C          4.90539        25.69106        -2.10142
C          6.13834        27.70040        -2.46997
C          4.88831        27.10539        -2.23111
C          6.12438        29.70441        -1.80762
C          4.84060        30.00508        -1.21637
C          6.08113        31.42087         0.40069
C          4.82074        31.05685        -0.27989
C          6.15411        32.67025         1.19347
C          4.86323        33.22323         1.63416
C          6.17982        35.31213         2.35072
C          4.89997        34.59593         2.32818
C          6.15204        36.72041         2.71213
C          4.92725        37.34638         3.03687
C          8.51130         3.86034         1.52645
C          7.28386         4.55857         1.60824
C          8.52669         6.70964         1.50787
C          7.28884         5.99791         1.59210
C          8.54466         8.15226         1.44055
C          7.33497         8.88658         1.49491
C          8.56548        10.96783         1.22090
C          7.31804        10.29761         1.35085
C          8.58355        12.44383         1.20275
C          7.26582        13.18221         1.06474
C          8.61563        15.27283         0.30290
C          7.28012        14.61987         0.64388
C          8.59799        16.56696        -0.44529
C          7.34374        17.27778        -0.57406
C          8.53815        19.31869        -1.25607
C          7.30231        18.60838        -1.03404
C          8.56828        20.69977        -1.42349
C          7.35098        21.42267        -1.59804
C          8.49308        23.57581        -1.16541
C          7.29948        22.82514        -1.62400
C          8.54345        25.08159        -1.27648
C          7.32712        25.73211        -1.77612
C          8.60859        27.86475        -1.88944
C          7.37434        27.10846        -2.08422
C          8.58528        29.39363        -1.98669
C          7.35592        30.00811        -1.30702
C          8.67022        31.42868         0.38663
C          7.38752        30.79958        -0.06938
C          8.65699        32.59462         1.33903
C          7.34725        33.27062         1.57858
C          8.62871        35.39165         2.07078
C          7.36472        34.65165         2.04240
C          8.59900        36.83269         2.39256
C          7.36009        37.43642         2.74728
C         10.96003         3.83888         1.38280
C          9.73399         4.54833         1.45426
C         10.99243         6.68970         1.41911
C          9.74411         5.99189         1.45145
C         11.02063         8.11463         1.40473
C          9.78871         8.84322         1.35155
C         11.05723        10.98317         1.22696
C          9.79214        10.26506         1.25012
C         11.06253        12.36940         0.99531
C          9.84533        13.12369         0.81383
C         11.11929        15.08540        -0.04785
C          9.83477        14.42675         0.31773
C         11.09152        16.47291        -0.65577
C          9.77987        17.13379        -0.88591
C         11.08893        19.30359        -1.36929
C          9.78615        18.53763        -1.35442
C         11.11646        20.76571        -1.27992
C          9.84990        21.46951        -1.68246
C         11.07636        23.63654        -1.02033
C          9.78951        22.85032        -1.06714
C         11.05228        25.09145        -1.27362
C          9.84759        25.77704        -1.41137
C         11.09984        27.92230        -1.62647
C          9.81817        27.20382        -1.66176
C         11.11386        29.30274        -1.56499
C          9.85390        30.04715        -1.44299
C         11.18290        31.74258         0.02608
C          9.88462        31.17473        -0.43829
C         11.17835        32.87792         0.85711
C          9.97116        33.29709         1.69978
C         11.10445        35.52495         2.19110
C          9.83510        34.79006         1.82550
C         11.03191        37.00130         1.81008
C          9.75094        37.59673         2.31969
C         13.40957         3.77502         1.28777
C         12.19430         4.50402         1.38019
C         13.44120         6.64387         1.51302
C         12.21397         5.95370         1.43141
C         13.48993         8.06113         1.49363
C         12.27014         8.81501         1.43585
C         13.56342        10.91698         1.37159
C         12.29004        10.24277         1.38181
C         13.60599        12.31738         1.04392
C         12.35004        13.16176         1.08801
C         13.46691        14.45239        -0.70171
C         12.34052        14.22586         0.00947
C         13.53247        16.52054        -1.39066
C         12.30987        17.16930        -1.17446
C         13.53520        19.27428        -0.96679
C         12.34540        18.59259        -1.10038
C         13.58721        20.76551        -0.74064
C         12.29236        21.45290        -1.11014
C         13.53032        23.56485        -1.42911
C         12.33133        22.89368        -1.22545
C         13.53885        25.01463        -1.51579
C         12.32813        25.74968        -1.46880
C         13.59247        27.84840        -1.58557
C         12.35324        27.17890        -1.59048
C         13.65985        29.31790        -1.59389
C         12.35404        30.08826        -1.47105
C         13.59094        31.95490        -0.35193
C         12.36594        31.32333        -0.64107
C         13.59434        33.08342         0.48599
C         12.39218        33.58985         1.05523
C         13.53567        35.64938         1.81299
C         12.38640        34.90223         1.67608
C         13.50157        37.06569         2.19479
C         12.27746        37.72077         2.25244
C         15.87460         3.72689         1.20686
C         14.65935         4.41130         1.36886
C         16.01505         6.59127         1.54874
C         14.67742         5.85869         1.66632
C         15.99175         8.04123         1.33324
C         14.76177         8.74466         1.42627
C         16.07003        10.84180         1.38230
C         14.76644        10.16628         1.37803
C         16.08495        12.33549         1.00057
C         14.80106        12.89119         0.63351
C         16.06684        14.88239        -0.44927
C         14.81245        14.00230        -0.32492
C         16.02014        16.33625        -0.85491
C         14.78424        17.07174        -1.07287
C         16.07334        19.28753        -1.07483
C         14.77173        18.51605        -0.80451
C         16.03690        20.70300        -1.47565
C         14.80466        21.43608        -1.37574
C         15.96791        23.54002        -2.00767
C         14.75468        22.80762        -1.60700
C         16.02094        24.99308        -1.74412
C         14.79796        25.70074        -1.58730
C         16.07163        27.80195        -1.34617
C         14.82375        27.12743        -1.49556
C         16.08154        29.24023        -1.10249
C         14.90066        29.96956        -1.16054
C         16.14460        32.02939        -0.43294
C         14.87153        31.47717        -1.02501
C         16.14054        33.27063         0.25069
C         14.87508        33.68604         0.88731
C         16.07422        35.81962         1.64474
C         14.84676        35.01780         1.61608
C         15.99868        37.16198         2.14171
C         14.73136        37.74527         2.41990
C         18.31330         3.67648         0.75600
C         17.12093         4.40319         1.06948
C         18.38501         6.50636         0.79985
C         17.18983         5.81961         1.12849
C         18.43003         7.94232         0.80386
C         17.23268         8.69858         1.04938
C         18.51369        10.81270         0.80849
C         17.29725        10.10959         1.06739
C         18.54450        12.25237         0.73708
C         17.34285        12.99805         0.59248
C         18.52897        15.16130         0.20921
C         17.29730        14.35574         0.21412
C         18.50981        16.51108        -0.49434
C         17.21191        17.03799        -0.95753
C         18.52071        19.14258        -1.75500
C         17.21581        18.43120        -1.47074
C         18.50469        20.62213        -1.77136
C         17.25878        21.32021        -1.80544
C         18.53874        23.50640        -1.88900
C         17.27867        22.76879        -2.09796
C         18.51763        24.92300        -1.75232
C         17.26524        25.65821        -1.68441
C         18.54754        27.72879        -1.20589
C         17.28731        27.06945        -1.41559
C         18.55546        29.12062        -0.72064
C         17.32210        29.91452        -0.82477
C         18.62774        32.03327        -0.49862
C         17.34884        31.30013        -0.58182
C         18.59754        33.49752         0.02231
C         17.31628        33.98181         0.55344
C         18.52254        35.97053         1.45608
C         17.29732        35.24090         1.25329
C         18.45536        37.28395         2.02626
C         17.20358        37.87220         2.32685
C         19.49397         4.33170         0.49271
C         20.76821         6.45434         0.22895
C         19.55883         5.75497         0.49780
C         20.81591         7.82864         0.26092
C         19.65423         8.61862         0.54224
C         20.92867        10.76258         0.29639
C         19.70149        10.05644         0.55297
C         21.02059        12.11863         0.37307
C         19.84538        12.93837         0.67069
C         21.02595        15.13614        -0.17152
C         19.85562        14.47419         0.40270
C         20.97355        16.34317        -0.81704
C         19.77318        17.09927        -1.01243
C         20.97269        19.17888        -1.71268
C         19.78589        18.41629        -1.51865
C         20.93976        20.55182        -1.87519
C         19.73172        21.31316        -1.83654
C         20.95665        23.49477        -1.65771
C         19.74676        22.77475        -1.80460
C         20.95639        24.87332        -1.57014
C         19.75198        25.61723        -1.59063
C         21.00165        27.78942        -1.34075
C         19.75939        27.04602        -1.35286
C         21.07143        29.11347        -1.04418
C         19.89822        29.84125        -0.55109
C         21.05643        32.04138        -0.17979
C         19.91079        31.32734        -0.44575
C         21.03320        33.39903         0.26518
C         19.85849        34.08790         0.49695
C         20.95631        36.13571         1.41850
C         19.79361        35.40033         1.13852
C         20.88658        37.42028         1.98251
C         19.66300        37.99559         2.27545
O         15.69993        13.87650        -1.48335
O         20.05694        13.93638         1.73752
O          6.09628        28.98465        -3.01074
O         18.61314        33.18678        -1.40292
O         17.67118        18.57311        -2.84416
O         10.42437        23.07783         0.20347
O          0.98366        33.09385        -0.70124
O          8.81282        31.20794         1.82039
O          5.38797         8.69548         2.96638
O          8.26876        24.40972         0.01086
O         16.53546        23.15111        -3.30697
O         10.48327        18.80746        -2.64281
O          9.80659        31.45570        -1.88267
O          5.76224        20.85809        -3.33787
O          1.44137        19.58723        -3.93405
O          3.09736        25.48992        -3.66683
O         15.45831         6.19416         2.85537
O         13.07334        30.05833        -2.75564
O         13.43384        15.21444        -1.87152
O         18.48056        16.40619         0.99378
O         11.30952        16.28105         0.82628
O         16.17824        11.88889         2.38855
O         15.64391        18.99537         0.29252
O          6.65687        30.21865         1.05297
O          5.21924        17.45436         0.67634
O          7.97029        15.45999         1.61391
O          7.88456        12.99476         2.37357
O         15.00093        33.74722         2.35179
O          4.83091        33.34950         3.09485
O         19.22491        29.23219         0.60032
O         10.99186        37.05992         0.34166
H         10.94140        38.00308         0.08015
O          9.91588        21.67396        -3.12597
H          9.99337        20.77988        -3.53227
O         10.30748        32.86166         3.05991
H         10.02768        31.91804         3.12814
O         14.84889        32.03000        -2.38622
H         14.16968        31.51126        -2.88839
O         11.17235        35.46580         3.64072
H         11.04916        34.51991         3.89058
O          0.34685        25.53620        -3.62919
H          0.99856        25.54976        -4.36465
O          1.92805        30.47580        -2.59881
H          1.14249        31.04514        -2.44880
O         12.36509        13.80547         2.39293
H         11.67262        14.50203         2.39583
O         13.74943        20.96185         0.69792
H         14.49155        20.37487         0.98337
O          8.56971        29.69901        -3.39593
H          8.80130        30.64878        -3.49134
H          1.15687         2.74804         1.89546
H         -1.01111         3.95874         1.65778
H         -1.05826         6.39517         1.30707
H         -1.05176         8.26441         0.87362
H         -1.01945        10.62960         0.35221
H         -1.00125        12.41965        -0.13668
H         -0.95787        14.67124        -1.03125
H         -0.77355        16.00931        -2.36016
H         -0.57950        18.06507        -3.74484
H         -0.73372        21.04223        -3.98838
H         -0.87650        23.43656        -3.22148
H         -0.53684        24.70862        -0.89084
H         -0.37193        26.96089         0.05622
H         -0.89272        28.94740        -0.30528
H         -1.07530        31.33443         0.17033
H         -1.07254        33.10884         1.19634
H         -0.96932        35.12428         2.60664
H          0.29331        37.15410         3.26923
H          3.60925         2.77417         1.88340
H          2.44823        38.35773         3.57993
H          6.05333         2.77389         1.75156
H          4.94170        38.39504         3.36893
H          8.50793         2.76052         1.53438
H          7.34595        38.50361         3.01462
H         10.93909         2.73943         1.35361
H          9.69679        38.67888         2.51950
H         13.36623         2.68451         1.14904
H         12.23896        38.79873         2.47563
H         15.85329         2.63578         1.06586
H         14.69948        38.79222         2.75739
H         18.27134         2.57812         0.72559
H         17.17402        38.89412         2.73287
H         20.40506         3.75987         0.26403
H         21.67763         5.87939         0.00172
H         21.77533         8.32096         0.05608
H         21.84175        10.19355         0.07773
H         21.99687        12.60854         0.25657
H         22.00887        14.67709         0.00484
H         21.91945        16.76657        -1.18321
H         21.95192        18.68237        -1.67031
H         21.89821        21.07505        -1.99124
H         21.91437        22.96248        -1.59202
H         21.91693        25.38691        -1.43507
H         21.91679        27.28629        -1.68164
H         22.01146        29.66142        -1.20160
H         22.02842        31.52693        -0.18129
H         21.99612        33.84375         0.55264
H         21.94351        35.71700         1.18098
H         21.81587        37.97165         2.18253
H         19.61046        39.00380         2.71051
