         621
 CSIRO Nanostructure Databank - Neutral Graphene Oxide Data Set
C          6.29064        31.89897        -1.14281
C          6.27244        33.26499        -1.16614
C          8.36179        27.59534        -0.60121
C          8.43201        28.90829        -0.14185
C          7.43789        29.78224        -0.71917
C          8.30073        31.84617         0.36343
C          7.32704        31.13148        -0.49136
C          8.37246        33.33301         0.20073
C          7.31960        34.05130        -0.56625
C          8.40308        36.13373         0.12440
C          7.29850        35.41983        -0.48956
C          8.30691        37.43419         0.54290
C         10.93054        23.17797        -0.90330
C         10.72294        24.52146        -0.24058
C          9.55956        25.33279        -0.82857
C         10.96193        27.41255         0.73724
C          9.18028        26.47648        -0.19104
C         10.82044        28.86352         0.98091
C          9.47458        29.55113         0.74752
C         10.84462        31.81415         0.66847
C          9.50916        31.11104         0.96537
C         10.89107        33.22357         0.55115
C          9.67297        34.02462         0.37661
C         10.91249        36.18958         0.32143
C          9.66150        35.39820         0.28377
C         10.84893        37.63413         0.76826
C          9.46932        38.20804         1.04724
C         11.15685        40.00190         0.25237
C         10.31483        38.80904        -0.08333
C         11.06271        41.35971        -0.19633
C         13.42921        18.93007        -1.09800
C         13.39234        20.29724        -1.08256
C         12.11111        21.05203        -1.37356
C         13.37739        23.19248        -0.68210
C         12.13650        22.51968        -0.96341
C         13.32603        24.66783        -0.55179
C         12.00423        25.37781        -0.33118
C         13.29447        27.56921         0.15930
C         12.04902        26.76507         0.24269
C         13.30311        28.89868         0.86457
C         12.04921        29.67626         0.92562
C         13.35089        31.77895         0.86877
C         12.06975        31.07629         0.83929
C         13.36765        33.21248         0.81129
C         12.14190        33.90790         0.62949
C         13.38177        36.04891         1.06295
C         12.16287        35.38774         0.51681
C         13.37901        37.47297         1.48574
C         12.03846        38.20586         1.59049
C         13.36976        40.40591         1.34239
C         12.16771        39.61259         1.10037
C         13.30483        41.80874         0.80658
C         12.07546        42.27978         0.11132
C         13.21193        44.46096        -0.17569
C         12.05512        43.65521        -0.26127
C         13.20192        45.87696        -0.29110
C         15.87294        14.58520        -0.88291
C         15.76800        15.96367        -0.55751
C         14.62835        16.72580        -0.84888
C         15.82375        18.84047        -0.54637
C         14.63176        18.15907        -0.81892
C         15.93741        20.26827        -0.83186
C         14.65000        21.06997        -1.03969
C         15.83066        23.16966        -0.32320
C         14.63456        22.51591        -0.66796
C         15.80274        24.57341         0.13954
C         14.54050        25.36274        -0.01740
C         15.88170        27.52429         0.35065
C         14.60420        26.86389        -0.02839
C         15.88205        28.94347         0.59275
C         14.61201        29.62583         0.93662
C         15.82596        31.79620         1.03999
C         14.58229        31.10008         0.94793
C         15.85614        33.22672         1.06017
C         14.63522        33.89419         0.87780
C         15.92735        36.10055         0.92915
C         14.65527        35.35705         0.71714
C         15.87384        37.55254         1.21189
C         14.65641        38.25082         1.34825
C         15.86213        40.36536         1.03263
C         14.65903        39.66724         1.30648
C         15.88864        41.88834         0.88400
C         14.55835        42.48256         0.46371
C         15.72235        44.49371        -0.21848
C         14.49192        43.77997         0.02478
C         15.67614        45.95898        -0.08141
C         14.37838        46.65790        -0.17425
C         15.58843        48.87915        -0.10684
C         14.40589        48.05783        -0.07499
C         15.43577        50.21632         0.32881
C         18.29098        10.29089        -1.25964
C         18.23342        11.65819        -0.88232
C         17.08308        12.46914        -1.09122
C         18.21714        14.41135         0.01882
C         17.02622        13.80700        -0.65818
C         18.18705        15.88118         0.34464
C         16.90278        16.62915         0.11777
C         18.24052        18.83028         0.31252
C         16.94404        18.13779         0.09288
C         18.25678        20.20527         0.26557
C         17.18290        20.97803        -0.40243
C         18.27615        23.15291         0.44228
C         17.13839        22.48121        -0.24936
C         18.22949        24.58817         0.57289
C         17.07185        25.31810         0.33782
C         18.32779        27.47369         0.60262
C         17.05040        26.76169         0.42096
C         18.33574        28.96286         0.82651
C         17.05024        29.66738         0.84547
C         18.25719        31.74308         1.55475
C         17.04701        31.07365         1.14553
C         18.34284        33.19742         1.52768
C         17.13098        33.93133         1.24385
C         18.37149        36.08866         1.31945
C         17.15978        35.34449         1.20743
C         18.35606        37.52304         1.18796
C         17.10523        38.24937         1.15032
C         18.34632        40.44550         0.82610
C         17.07415        39.66102         1.01497
C         18.12566        41.58262        -0.15450
C         17.00554        42.38969        -0.03461
C         18.04977        44.60344        -0.87433
C         16.90457        43.79846        -0.44637
C         18.10323        46.00594        -0.75601
C         16.93666        46.76926        -0.27202
C         18.09531        48.86182        -0.72322
C         16.87265        48.24361        -0.46815
C         18.26501        50.30532        -0.66494
C         16.42066        51.24583         0.15326
C         18.11521        52.99866         0.76595
C         16.80622        52.32166         0.91689
C         18.21032        54.32593         1.02102
C         20.87941         5.99961        -1.42072
C         20.82504         7.40038        -1.27484
C         19.61770         8.13385        -1.48837
C         20.61037        10.13703        -0.52880
C         19.47837         9.50605        -1.14628
C         20.44572        11.38051         0.04072
C         19.39307        12.27975        -0.26760
C         20.73756        14.41984         0.07704
C         19.51594        13.67920        -0.04443
C         20.72010        15.88775         0.37759
C         19.45423        16.65218         0.43497
C         20.72345        18.77398         0.53399
C         19.46189        18.04543         0.51239
C         20.72376        20.20636         0.88357
C         19.40301        20.95974         0.79498
C         20.68961        23.09037         1.15875
C         19.40272        22.43685         0.79377
C         20.72672        24.57453         1.24068
C         19.40105        25.25424         1.16911
C         20.74277        27.43295         1.46029
C         19.45325        26.72641         1.21502
C         20.51887        28.71455         2.02425
C         19.39372        29.51412         1.69855
C         21.25295        32.02136         2.43583
C         19.27499        30.87073         2.05929
C         20.94106        33.33310         1.78208
C         19.57880        33.94651         1.61233
C         20.87474        36.10480         1.34824
C         19.58964        35.34716         1.43068
C         20.87305        37.58720         1.01669
C         19.55747        38.25746         0.89480
C         20.64831        40.05064        -0.41639
C         19.53138        39.57434         0.48496
C         20.55261        41.51186        -0.78086
C         19.24919        41.90076        -0.99245
C         20.46355        44.54144        -1.45586
C         19.17925        43.99659        -1.45895
C         20.49052        45.94985        -1.35511
C         19.30029        46.67797        -1.10114
C         20.54433        48.77374        -0.79572
C         19.33389        48.11438        -0.90174
C         20.60165        50.09526        -0.14404
C         19.36914        50.89113        -0.11013
C         20.69671        52.96493         0.49028
C         19.40525        52.16599         0.72789
C         20.76161        54.32824         0.93593
C         19.49009        55.01240         1.43164
C         20.72735        57.18128         1.20766
C         19.57163        56.45949         1.00631
C         20.79939        58.58657         1.12947
C         23.27980         3.19343        -0.71240
C         22.13831         3.87562        -1.20213
C         23.34425         6.02085        -1.04706
C         22.08546         5.27521        -1.23326
C         23.25419         7.44613        -0.72005
C         22.04062         8.07794        -0.83295
C         23.23601        10.33491        -0.65314
C         21.95912         9.55565        -0.71944
C         23.33869        11.79206        -0.43044
C         22.29096        12.49949         0.13048
C         23.18477        14.60338        -0.68193
C         22.03862        13.86697        -0.08357
C         23.14238        16.09933        -0.62860
C         22.00040        16.69547         0.15354
C         23.16469        18.90965         0.13509
C         21.92848        18.16462         0.23580
C         23.18816        20.31322         0.44258
C         21.97691        20.98103         0.76064
C         23.15484        23.12077         0.78440
C         21.95261        22.37520         0.86058
C         23.14130        24.58418         0.50163
C         21.85455        25.39785         0.61208
C         23.23011        27.53360         1.10960
C         21.99052        26.80928         1.22852
C         23.35088        28.93010         1.30701
C         22.41674        29.79503         2.02440
C         23.19540        31.75521         0.79892
C         22.34815        31.16181         1.89121
C         23.27106        33.25264         0.86226
C         22.09731        33.97988         1.09142
C         23.30496        36.07407         0.68889
C         22.10926        35.38193         1.00590
C         23.30400        37.50785         0.37950
C         22.08576        38.22811         0.44574
C         23.15506        40.17301        -0.63480
C         22.02160        39.52957        -0.10946
C         23.03448        41.47007        -1.38840
C         21.69201        42.16955        -1.51249
C         23.00496        44.43130        -1.81476
C         21.67794        43.69473        -1.77491
C         23.00267        45.87782        -1.36762
C         21.74978        46.66999        -1.58741
C         23.09009        48.78168        -0.95526
C         21.79025        48.12435        -1.21326
C         23.04673        50.25290        -0.85264
C         21.88818        50.87031        -0.14826
C         23.14712        53.03923         0.04341
C         21.87396        52.33642         0.09107
C         23.19861        54.40842         0.54939
C         21.96640        55.01345         1.00291
C         23.26900        57.16617         1.58305
C         21.95688        56.37887         1.70939
C         23.26434        58.61097         1.34250
C         22.02773        59.30447         1.18451
C         23.24684        61.41926         1.10205
C         22.04120        60.72098         1.08813
C         24.42359         3.84690        -0.30692
C         25.70758         6.03744         0.05711
C         24.61352         5.26347        -0.58606
C         25.72948         7.39669         0.11726
C         24.43100         8.18451        -0.08806
C         25.65416        10.30791        -0.84089
C         24.51584         9.59831        -0.61486
C         25.77823        11.75658        -0.75600
C         24.53272        12.51245        -0.79957
C         25.75779        14.63102        -0.91815
C         24.48468        13.89906        -0.85876
C         25.74911        16.14319        -0.90081
C         24.41180        16.90056        -0.82145
C         25.42491        19.18847        -0.64093
C         24.32758        18.32908        -0.40386
C         25.63140        20.41137         0.02541
C         24.41368        21.04751         0.46446
C         25.65255        23.17516         0.85925
C         24.37756        22.44832         0.68084
C         25.69956        24.63789         0.69636
C         24.43043        25.33329         0.36460
C         25.74143        27.49852         0.39833
C         24.35833        26.86445         0.27363
C         25.67296        28.92973         0.33942
C         24.50977        29.63415         0.78174
C         25.72063        31.77865         0.56993
C         24.51388        31.04154         0.72692
C         25.71704        33.18984         0.61286
C         24.49891        33.93719         0.68736
C         25.78156        36.15201         0.56970
C         24.50662        35.35143         0.63254
C         25.63844        37.23173        -0.50336
C         24.44900        38.12404        -0.15982
C         25.63654        40.15383        -0.91516
C         24.42420        39.48968        -0.58621
C         25.64285        41.53922        -1.42014
C         24.32967        42.20069        -1.71562
C         25.56595        44.39124        -1.23692
C         24.37729        43.73301        -1.94815
C         25.56738        45.86442        -1.01666
C         24.26354        46.61968        -1.03070
C         25.54543        48.85349        -1.04904
C         24.28396        48.11459        -1.03849
C         25.58137        50.22101        -0.95067
C         24.33192        51.00247        -0.85390
C         25.59088        53.11013        -0.50389
C         24.32521        52.38927        -0.34259
C         25.62371        54.56152        -0.03802
C         24.42240        55.08813         0.61670
C         25.77285        57.23301         0.88332
C         24.55758        56.43463         1.19998
C         25.73095        58.61545         1.07320
C         24.49503        59.32095         1.23743
C         24.46236        60.73610         1.15072
C         26.86384         8.11228         0.75086
C         28.16346        10.34709         0.74066
C         27.31753         9.30349         0.23311
C         28.09369        11.70080         0.34409
C         26.94806        12.37247        -0.30137
C         27.97475        14.63655         0.41321
C         27.00422        13.85251        -0.45906
C         28.13484        16.08393         0.01865
C         27.05736        16.78123        -0.55499
C         28.29036        18.91747        -0.23961
C         27.24237        18.15658        -0.79168
C         28.18233        20.35165         0.01157
C         26.94055        21.00970         0.16695
C         28.19387        23.16708         0.63552
C         26.95112        22.39012         0.70762
C         28.15882        24.56358         0.77784
C         26.91109        25.31232         0.68526
C         28.26376        27.37119         0.55831
C         26.94589        26.75857         0.47010
C         28.52870        28.70900         0.10359
C         26.73897        29.73216        -0.13601
C         28.23097        31.72184         0.10203
C         26.91410        31.06959         0.20884
C         28.28821        33.13893         0.54121
C         26.99565        33.89965         0.68917
C         28.22499        35.95993         0.08906
C         27.02446        35.32416         0.39780
C         28.19610        37.32238        -0.29954
C         26.95783        37.96337        -0.71488
C         28.16420        40.26091        -0.80949
C         26.92960        39.47166        -0.95721
C         28.15765        41.64080        -1.09056
C         26.90872        42.32942        -1.32966
C         28.10486        44.48733        -1.29550
C         26.88780        43.71206        -1.38924
C         28.10885        45.89371        -1.23344
C         26.82171        46.61892        -1.32755
C         28.10224        48.81815        -1.10767
C         26.81201        48.11851        -1.32832
C         28.11029        50.19878        -0.95813
C         26.85526        50.99407        -1.21169
C         28.08415        53.03103        -0.37177
C         26.86133        52.37187        -0.59159
C         28.10666        54.41776         0.01656
C         26.95097        55.17030         0.23051
C         26.96855        56.53986         0.58249
C         29.22184        12.51360         0.71233
C         30.45999        14.63578         0.87069
C         29.27671        13.90463         0.62083
C         30.54015        16.03941         0.72987
C         29.35616        16.77128         0.26997
C         30.75411        18.88213         0.13055
C         29.43175        18.17173         0.14761
C         30.64771        20.34563         0.48367
C         29.42559        21.03574         0.37373
C         30.65075        23.15827         0.77611
C         29.42148        22.45456         0.60084
C         30.63345        24.56540         0.92244
C         29.40613        25.24702         0.91461
C         30.60322        27.39613         1.43289
C         29.40711        26.67137         0.95713
C         30.57468        28.92453         1.40929
C         29.54140        29.52686         0.55493
C         30.78207        31.73870         0.69477
C         29.58647        30.96347         0.24554
C         30.77600        33.18258         0.51866
C         29.54673        33.87783         0.31036
C         30.73464        35.98789        -0.00252
C         29.50351        35.26255         0.15499
C         30.71345        37.35608        -0.32502
C         29.43919        38.08350        -0.24457
C         30.70536        40.29583        -0.50715
C         29.39514        39.58633        -0.36139
C         30.66540        41.72066        -0.89880
C         29.37007        42.39696        -1.10861
C         30.59119        44.53618        -1.32529
C         29.36297        43.79136        -1.27736
C         30.57975        45.92809        -1.22451
C         29.32474        46.63509        -1.16589
C         30.56672        48.77109        -0.94047
C         29.31890        48.06059        -1.06748
C         30.55251        50.16751        -0.74681
C         29.34110        50.90646        -0.72626
C         29.31047        52.29950        -0.48367
C         31.72501        16.74897         1.02844
C         33.02513        18.85746         1.12387
C         31.86107        18.14661         0.84168
C         33.09738        20.28612         0.97705
C         31.86655        21.03033         0.75957
C         33.12842        23.15502         0.99289
C         31.88826        22.43995         0.83740
C         33.15197        24.56234         1.04124
C         31.91000        25.35460         0.75297
C         33.11321        27.41309         1.51008
C         31.92126        26.73356         1.38413
C         33.14429        28.88535         1.78023
C         31.85918        29.66741         1.58501
C         33.14774        31.83412         1.48668
C         31.90425        31.08585         1.15853
C         33.14766        33.32774         1.30886
C         31.94864        33.95089         0.70184
C         33.19530        36.05183         0.37266
C         31.95997        35.31793         0.34255
C         33.22818        37.42404        -0.19290
C         31.94946        38.06296        -0.65664
C         33.23881        40.29754        -0.79195
C         31.92722        39.54107        -1.03145
C         33.19146        41.64491        -1.22530
C         31.90349        42.32014        -1.47871
C         33.14907        44.56105        -1.45242
C         31.86969        43.83520        -1.58747
C         33.07831        45.95964        -1.28441
C         31.83894        46.66019        -1.19242
C         31.79655        48.05118        -1.01701
C         34.29983        20.98582         1.11253
C         35.57653        23.12867         1.05379
C         34.36083        22.41508         1.06772
C         35.60633        24.54505         1.03670
C         34.36937        25.27295         1.12133
C         35.59219        27.38946         1.12572
C         34.37905        26.70940         1.25102
C         35.69742        28.85523         1.33592
C         34.44522        29.64066         1.64673
C         35.61180        31.74987         1.02065
C         34.44455        31.10091         1.39060
C         35.71104        33.25446         1.04336
C         34.46536        34.11397         1.37016
C         35.64164        36.16677         0.44361
C         34.40581        35.42025         0.59830
C         35.57570        37.53718         0.47787
C         34.32612        38.35181         0.29768
C         35.68314        40.27995        -0.99382
C         34.45909        39.63818        -0.54156
C         35.60569        41.65065        -1.37303
C         34.40028        42.39535        -1.36460
C         34.35120        43.82511        -1.47614
C         36.80999        25.28100         0.84638
C         37.97834        27.43540         0.45339
C         36.80385        26.68036         0.81493
C         37.97999        28.81660         0.32162
C         36.82090        29.59309         0.73292
C         37.88548        31.64242        -0.11504
C         36.78296        30.97596         0.62991
C         37.92854        33.13054        -0.26736
C         36.90507        33.95409         0.45176
C         38.24363        36.11832        -0.01848
C         36.84878        35.39285        -0.07198
C         38.18165        37.37790        -0.89938
C         37.36515        38.42878        -0.55846
C         36.94433        39.62079        -1.21775
C         39.14616        29.52290        -0.15602
C         40.28271        31.60445        -0.85457
C         39.12957        30.87970        -0.36645
C         40.32407        32.96325        -0.96246
C         39.21091        33.81682        -0.58502
C         39.32744        35.17168        -0.50521
O         21.73510        47.65352        -2.64505
O          7.71055        32.72963         1.38376
O         29.31843        38.98454         0.98379
O         23.47006        50.92246        -2.08167
O         22.71925        15.42323        -1.84336
O         21.47995        33.20389         3.20321
O         27.70978        29.13639        -0.94814
O         27.05125        38.48551        -2.09124
O         18.74340        28.38398        -0.46291
O         30.92855        41.30972         0.51223
O         29.06736        31.41284        -1.04236
O         15.51398        20.70132        -2.16420
O         17.66751        21.84761        -1.48040
O         25.45765        54.24064        -1.46249
O         13.39263        36.38809         2.49395
O         22.19394        41.35043        -2.61349
O         24.20708        56.67731         2.59189
O         16.49660        46.38150         1.07690
O         20.15899        31.32920         3.01594
O         22.55155        10.12443        -1.98327
O         20.86951        23.81258         2.45825
O         27.77894        33.41212         1.88306
O         24.40026         5.65277        -1.98511
O         11.79998        35.91406        -0.81768
O         32.87309        37.36974        -1.58798
O         25.04491        41.53028        -2.79655
O         26.83787         9.60680        -1.05836
O         23.78499        24.74469        -0.82415
O         21.41366        11.79717         0.95860
O         36.85415        33.71060         1.86959
O         17.17163        51.07551        -1.03310
O          9.80090        26.70453         1.06496
O         32.40837        29.40989         2.91965
O         17.98841        14.87143         1.40211
O         23.38977        46.06943         0.02828
O         21.70456        16.12314         1.46442
O         19.92189        20.45980         2.07866
O         35.38476        29.26483         2.71214
O         16.51401        17.39550         1.30046
O         37.37693        32.32136        -1.35172
O         13.23639        41.53542         2.27434
O         31.77386        42.95821        -2.76821
O         32.91182        32.72208         2.63567
O         26.34606        18.82780        -1.62742
O         26.33896        22.60504         2.03488
O         25.55299        44.93368         0.12041
O         21.07247        37.10838         2.39635
O         26.71428        47.36492        -2.59236
O         31.83833        39.63893        -2.43334
O          9.80116        28.99198         2.03895
O         21.74149        56.14369         3.06279
O         13.95629        27.55141        -1.14935
O         14.03725        28.94542         2.13904
O         21.50142        29.19202         2.90412
O         36.71603        38.29356         0.71408
O         25.07586        16.66149        -2.08728
O         22.25063        44.15310        -3.03489
O         15.37669        35.84047        -0.45206
O         18.99439        42.76105        -2.05820
O         14.88114        24.81844         1.29532
O         19.03755        25.97645         2.40834
O         12.62890        25.33805        -1.65005
O         21.49369        50.10074         1.05127
O         30.20670        28.19910         2.60857
O         26.80918        14.21135        -1.85218
O         36.59373        35.27680        -1.49844
H         35.79429        34.73010        -1.64730
O         23.99139         8.41401         1.30963
H         23.95559         7.54436         1.76207
O         31.96003        25.64516        -0.70327
H         32.05306        24.78628        -1.16911
O         11.86072        20.96841        -2.78937
H         12.64669        21.31668        -3.25968
O         24.76619        43.94846        -3.31972
H         24.06956        43.55867        -3.89369
O         25.93031        36.86669         1.82996
H         26.04825        36.20887         2.54747
O          9.44205        31.28119         2.40054
H          8.82649        32.03467         2.57535
O         10.47562        24.18764         1.14202
H         10.13464        24.99771         1.59174
O         25.30099        36.57560        -1.74428
H         25.58535        37.17773        -2.47110
O         27.30266        14.65355         1.72249
H         27.94375        14.98802         2.38518
O         34.61227        34.58660         2.72674
H         34.22203        33.89986         3.31735
O         38.57926        36.45372         1.33208
H         37.97499        37.17427         1.62306
O         11.68963        38.25176         2.99491
H         12.07376        37.44623         3.41484
O         21.37277        25.63592        -0.73418
H         22.12567        26.03533        -1.23498
O         26.84228        51.25733        -2.65987
H         26.00054        51.71577        -2.87465
O         31.15513        18.86063        -1.29153
H         30.42829        19.26545        -1.81146
O         18.67872        41.07431         2.10562
H         17.88909        41.59964         2.39277
O         22.47623        31.44487        -0.45828
H         23.05602        31.70503        -1.20570
O         19.43505        54.94952         2.87646
H         20.29867        55.33757         3.21846
O         19.51408        51.66630         2.09128
H         20.33258        51.11480         2.14191
O         20.34740        39.37958        -1.71044
H         20.94769        39.79477        -2.37935
O         33.88150        38.79512         1.61492
H         34.62305        39.27626         2.03941
O          9.20291        38.97492         2.18234
H         10.03900        39.08689         2.69296
O         23.93264        27.18269        -1.09061
H         24.50818        26.68584        -1.71117
O         16.16716        42.40683         2.22798
H         15.35062        42.26615         2.76108
H          5.49870        31.33757        -1.66032
H          5.45430        33.79248        -1.67789
H          7.59902        27.39132        -1.37036
H          6.70263        29.31545        -1.39325
H          6.45458        35.99336        -0.90070
H          7.33947        37.95579         0.48680
H         10.01889        22.60869        -1.14378
H          9.16547        25.08111        -1.82308
H          9.99777        38.65421        -1.12742
H         10.19910        41.68216        -0.79536
H         12.49013        18.37218        -1.23472
H         11.24817        20.54624        -0.87079
H         11.10814        44.10284        -0.59909
H         12.23409        46.38966        -0.40129
H         15.01377        14.10355        -1.37490
H         13.73115        16.21588        -1.23119
H         13.44284        48.58262         0.02759
H         14.50844        50.46121         0.87165
H         17.39034         9.83327        -1.69664
H         16.20645        12.03873        -1.59861
H         16.18722        52.63124         1.77378
H         17.28617        54.90507         1.17881
H         19.95840         5.44271        -1.65216
H         18.74603         7.59022        -1.88441
H         18.72034        56.92558         0.48083
H         19.86059        59.16343         1.13706
H         23.20329         2.10798        -0.55364
H         21.22858         3.29836        -1.42193
H         23.24154        62.51605         1.03639
H         21.08816        61.26094         0.99842
H         25.19356         3.30996         0.26641
H         26.59200         5.46799         0.38546
H         26.65265        59.20201         0.94143
H         25.40942        61.29130         1.09476
H         27.29747         7.69814         1.67454
H         28.95408        10.08001         1.46058
H         29.08565        54.89337         0.17868
H         27.92626        57.08152         0.60383
H         30.12997        11.98469         1.04301
H         31.36952        14.08061         1.14842
H         31.50661        50.70051        -0.61959
H         30.25800        52.83227        -0.31537
H         32.58145        16.18755         1.43384
H         33.91209        18.32377         1.49925
H         34.01201        46.53766        -1.20585
H         32.74021        48.61380        -0.95159
H         35.23595        20.42315         1.24778
H         36.52639        22.57404         1.02376
H         36.54033        42.16484        -1.64401
H         35.30419        44.37638        -1.47767
H         37.75042        24.73790         0.67059
H         38.89007        26.87595         0.19500
H         38.67411        37.36518        -1.88205
H         37.63588        40.10603        -1.92480
H         40.05954        28.94550        -0.36426
H         41.17328        31.01536        -1.12064
H         41.24807        33.45086        -1.30765
H         40.30451        35.62720        -0.73453
