         651
 CSIRO Nanostructure Databank - Neutral Graphene Oxide Data Set
C          6.42842        31.95777         2.57933
C          6.27327        33.27144         2.27268
C          8.95958        27.70722         2.08049
C          8.95508        29.12038         2.07348
C          7.86110        29.83263         2.56075
C          8.83040        32.02624         1.70767
C          7.74623        31.28950         2.46966
C          8.42485        33.27486         1.00463
C          7.30210        34.04375         1.59948
C          8.20816        36.10552         0.59142
C          7.17420        35.37082         1.28442
C          8.16266        37.49651         0.60842
C         11.25062        23.31762         1.34503
C         11.33725        24.82410         1.34857
C         10.07730        25.56735         1.67661
C         11.05489        27.65511         0.75039
C         10.03110        26.94988         1.52823
C         11.10892        29.03387         0.69660
C         10.14880        29.80981         1.51008
C         10.92704        31.89118         0.21815
C         10.05901        31.30519         1.24463
C         10.62046        33.20698        -0.46879
C          9.38783        33.93918         0.06342
C         10.47325        36.10967        -0.41942
C          9.35674        35.41905         0.02122
C         10.47908        37.62641        -0.43924
C          9.27563        38.27933         0.21052
C         10.54284        40.37311         0.20036
C          9.29669        39.66011         0.30528
C         10.64868        41.72660        -0.03520
C         13.58665        19.06856         1.25087
C         13.49877        20.38851         0.80307
C         12.12951        21.04417         0.72701
C         13.25697        23.14680        -0.11275
C         12.19490        22.55958         0.74990
C         13.14652        24.60755        -0.46841
C         11.99885        25.37249         0.09351
C         13.14858        27.58109        -0.72905
C         11.97008        26.86469        -0.08593
C         13.20756        29.04247        -0.59276
C         12.15411        29.74583        -0.03324
C         13.07707        31.92066        -0.93552
C         12.04999        31.19715        -0.23076
C         13.08057        33.34322        -0.94428
C         11.85940        34.06402        -0.59798
C         12.87666        36.28164        -1.21552
C         11.72525        35.42976        -0.71036
C         13.03758        37.55976        -0.39896
C         11.77397        38.07443         0.28610
C         13.06856        40.29586         0.55891
C         11.76658        39.58166         0.50541
C         13.08672        41.74762         0.33391
C         11.91717        42.42900        -0.03720
C         13.18649        44.49720        -0.57235
C         11.97367        43.79915        -0.44504
C         13.26643        45.87590        -0.84816
C         16.16950        14.82028         1.73243
C         16.07931        16.24339         1.55892
C         14.89464        16.96684         1.59144
C         15.99998        19.13586         1.03341
C         14.82679        18.38723         1.32111
C         15.92049        20.45653         0.53981
C         14.66692        21.07228         0.37366
C         15.74881        23.09907        -0.96458
C         14.53035        22.37957        -0.33619
C         15.68765        24.62588        -0.85225
C         14.40736        25.37780        -0.75540
C         15.54537        27.53686        -1.39340
C         14.39572        26.84307        -1.04868
C         15.56541        28.97904        -1.55341
C         14.26668        29.69573        -1.39581
C         15.40420        31.90142        -2.05170
C         14.16730        31.17844        -1.60505
C         15.44679        33.39859        -1.87686
C         14.21469        34.07017        -1.37352
C         15.56155        36.23475        -1.21839
C         14.17559        35.50841        -1.43255
C         15.53075        37.53171        -0.53188
C         14.25739        38.16459        -0.18869
C         15.51155        40.15297         0.57799
C         14.32693        39.52924         0.36002
C         15.61706        41.63874         0.86914
C         14.36760        42.44833         0.48642
C         15.73894        44.36537        -0.60177
C         14.43365        43.82681        -0.11728
C         15.80198        45.86585        -0.93901
C         14.49343        46.61104        -0.74441
C         15.75353        48.73644        -0.21950
C         14.51892        47.98507        -0.65289
C         15.87584        50.17875        -0.63791
C         18.75528        10.62395         2.00949
C         18.69120        12.03298         1.92252
C         17.46888        12.71371         1.91037
C         18.61659        14.79546         1.22959
C         17.37437        14.11781         1.68271
C         18.59363        16.30161         1.01772
C         17.34449        17.00032         1.44003
C         18.54182        19.09431         0.57509
C         17.30529        18.47728         1.21446
C         18.43471        20.57626         0.73169
C         17.17829        21.19071         0.20410
C         18.23047        23.54912        -0.44504
C         17.10756        22.55647        -0.44348
C         18.16232        24.76234        -1.13000
C         16.85697        25.34043        -1.47454
C         18.08426        27.59080        -1.82253
C         16.80956        26.82630        -1.72794
C         18.02848        28.98390        -1.96629
C         16.73275        29.65554        -1.89849
C         17.99399        31.88815        -2.17687
C         16.68652        31.11086        -2.20886
C         17.94914        33.32337        -1.80073
C         16.77296        34.05511        -1.67898
C         17.98210        36.07426        -0.86857
C         16.79028        35.42557        -1.21099
C         17.96509        37.38755        -0.32420
C         16.74009        38.06911        -0.08247
C         17.96590        40.27347         0.18677
C         16.80370        39.37697         0.68455
C         18.15336        41.60280         0.87745
C         16.92189        42.14333         0.19684
C         18.18809        44.39125         0.08001
C         16.98446        43.58867        -0.27535
C         18.19388        45.82366        -0.04134
C         17.00866        46.55428        -0.33668
C         18.27272        48.63131        -0.38230
C         17.03577        47.95509        -0.37008
C         18.34404        49.99380        -1.02480
C         17.08958        50.80839        -0.79755
C         18.45644        52.87360        -0.91185
C         17.20674        52.22654        -0.84645
C         18.54380        54.27924        -0.87836
C         21.16638         6.33737         1.78869
C         21.14917         7.74241         1.78843
C         19.97503         8.49149         1.95304
C         21.20962        10.62666         1.63897
C         19.96548         9.90875         1.91769
C         21.20708        12.04697         1.56527
C         19.98901        12.80815         2.02882
C         21.08910        14.89845         1.17966
C         19.92321        14.18470         1.42755
C         21.07028        16.34907         1.03568
C         19.86726        17.03062         1.06049
C         21.13437        19.30466         1.22025
C         19.82208        18.50142         1.17508
C         20.93688        20.77649         0.93980
C         19.57645        21.24958         1.00566
C         20.71172        23.60915        -0.41707
C         19.50079        23.26467         0.15753
C         20.60821        24.74605        -1.35164
C         19.34811        25.51714        -1.34778
C         20.59705        27.54617        -1.93410
C         19.34105        26.86468        -1.76179
C         20.52059        28.94998        -2.48964
C         19.26927        29.74437        -2.10216
C         20.51637        31.89601        -2.00273
C         19.27857        31.13057        -2.09277
C         20.50135        33.21520        -1.61179
C         19.25123        34.01294        -1.67158
C         20.57059        36.15487        -0.83138
C         19.27255        35.46126        -1.24378
C         20.37530        37.28325         0.15683
C         19.20106        38.00616         0.09033
C         20.58513        40.15497         0.29563
C         19.25797        39.49347         0.03473
C         20.63429        41.69032         0.31409
C         19.31747        42.29387         0.74309
C         20.50359        44.44252         0.93160
C         19.30723        43.74821         0.62110
C         20.56287        45.85641         0.73246
C         19.39749        46.54070         0.22684
C         20.73055        48.60540        -0.16147
C         19.45767        47.93334        -0.08270
C         20.84990        49.94500        -0.56824
C         19.64835        50.72139        -0.79917
C         20.95988        52.80318        -1.06557
C         19.69565        52.10451        -0.91818
C         21.00455        54.17398        -1.15280
C         19.78859        54.94773        -0.94340
C         21.09732        57.04032        -0.75634
C         19.85522        56.33800        -0.77451
C         21.14923        58.40152        -0.41709
C         23.52869         3.49374         1.14960
C         22.37766         4.19867         1.53409
C         23.53901         6.32094         1.06002
C         22.34911         5.60535         1.51291
C         23.54654         7.69371         1.02389
C         22.47719         8.46138         1.75221
C         23.56631        10.59021         0.95734
C         22.38764         9.91266         1.36939
C         23.58458        12.02377         0.95135
C         22.37944        12.75342         1.26024
C         23.50824        14.90392         0.77899
C         22.35885        14.19945         1.14488
C         23.47171        16.31218         0.55782
C         22.30929        17.09192         0.86377
C         23.57142        19.15220         0.42791
C         22.36724        18.51687         0.90549
C         23.77330        20.58808         0.37759
C         21.92699        21.74486         0.77907
C         23.17973        23.43925        -0.59225
C         21.97229        22.97624        -0.02999
C         23.18513        24.63719        -1.57512
C         21.89041        25.42855        -1.75168
C         23.08111        27.65613        -1.73119
C         21.84301        26.90568        -1.83871
C         23.09706        29.04188        -1.93726
C         21.84536        29.72864        -2.36338
C         23.10809        32.04531        -2.06763
C         21.82343        31.22251        -2.23755
C         22.99897        33.11532        -1.00289
C         21.67225        33.80134        -0.90122
C         22.93472        35.85110         0.03847
C         21.66447        35.20610        -0.40792
C         22.80654        36.97627         0.87821
C         21.56947        37.81217         0.86329
C         22.94862        40.06516         1.27416
C         21.66277        39.33999         0.99026
C         23.00846        41.57707         1.26811
C         21.77633        42.34466         1.04523
C         22.84527        44.41952         1.91556
C         21.69862        43.69624         1.26048
C         22.91939        45.91322         1.57445
C         21.75569        46.56709         0.94428
C         23.24328        48.54646         0.17242
C         21.92060        47.83203         0.20112
C         23.30054        49.97071        -0.21916
C         22.13669        50.60493        -0.64509
C         23.50432        52.66889        -1.27516
C         22.16124        51.93691        -1.38741
C         23.53124        54.15812        -1.24297
C         22.25588        54.91462        -1.58345
C         23.51651        57.03235        -1.10368
C         22.31231        56.34735        -1.08375
C         23.57579        58.42843        -0.79206
C         22.37208        59.11027        -0.42333
C         23.62963        61.17399        -0.14309
C         22.42962        60.49506        -0.09240
C         24.67553         4.15231         0.71660
C         25.89737         6.25867         0.30511
C         24.72080         5.56886         0.64433
C         25.93579         7.67455         0.22030
C         24.61563         8.41061         0.24531
C         25.91484        10.55245         0.24030
C         24.73262         9.87628         0.56172
C         25.94133        11.98330         0.25779
C         24.77343        12.69510         0.61845
C         25.78414        14.74544        -0.30132
C         24.85303        14.19591         0.76947
C         25.78203        16.24104        -0.31304
C         24.63403        16.96825         0.00941
C         25.66109        19.05923        -0.92567
C         24.60857        18.39512        -0.12824
C         25.70416        20.53589        -1.06594
C         24.59280        21.27526        -0.49074
C         25.57704        23.39119        -1.20014
C         24.46834        22.72718        -0.67675
C         25.59964        24.83923        -1.32472
C         24.37461        25.53467        -1.35531
C         25.56434        27.64868        -1.47587
C         24.33809        26.93809        -1.48001
C         25.53439        29.13151        -1.20830
C         24.28729        29.82585        -1.72339
C         25.58552        31.94835        -1.57644
C         24.34688        31.21641        -1.78787
C         25.54526        33.46160        -1.34505
C         24.25131        33.84778        -0.65702
C         25.36287        35.84542         0.39500
C         24.18022        35.21052        -0.08092
C         25.24748        36.94187         1.29077
C         23.91694        37.18975         1.75743
C         25.40191        40.05779         1.85577
C         24.01222        39.66508         2.27347
C         25.45036        41.48520         1.84439
C         24.13904        42.22671         2.07699
C         25.41292        44.40877         1.90446
C         24.17155        43.69450         1.74307
C         25.49815        45.79550         1.28933
C         24.24302        46.61123         1.53505
C         25.60244        48.76283         1.17884
C         24.30740        48.03920         1.07939
C         25.72416        50.02718         0.41325
C         24.59621        50.60402        -0.18257
C         25.93448        52.71786        -0.44377
C         24.72566        51.94997        -0.76719
C         26.03746        54.12835        -0.96694
C         24.70206        54.82728        -1.10960
C         26.02958        57.00145        -1.02543
C         24.77430        56.29162        -1.49531
C         26.06303        58.47988        -1.34306
C         24.79715        59.15936        -0.86354
C         24.81194        60.50973        -0.53956
C         27.10341         8.38378        -0.03011
C         28.30721        10.51105        -0.35944
C         27.13064         9.81781        -0.08131
C         28.35298        11.94181        -0.40275
C         27.15024        12.67102        -0.12462
C         28.34314        14.75980        -0.52115
C         27.15173        14.08176        -0.25239
C         28.36125        16.22997        -0.48555
C         27.04358        16.95712        -0.50714
C         28.17090        19.00178        -1.57903
C         26.93359        18.28368        -1.16615
C         28.09051        20.48105        -1.79561
C         26.82998        21.19398        -1.48576
C         28.07994        23.42621        -1.21840
C         26.80831        22.68366        -1.72690
C         28.05494        24.81818        -1.82266
C         26.80120        25.54689        -1.54761
C         28.02658        27.66735        -1.93536
C         26.79429        26.94965        -1.62225
C         27.79197        29.04799        -2.22390
C         26.75773        29.83230        -1.74786
C         28.09274        32.04335        -1.63775
C         26.80190        31.27854        -1.72613
C         28.04706        33.39862        -0.92808
C         26.74412        34.01600        -0.56274
C         27.83728        35.84628         0.76418
C         26.65953        35.19180         0.16599
C         27.77215        37.03401         1.44683
C         26.46170        37.67703         1.89331
C         27.79666        39.94011         1.58228
C         26.52861        39.24894         1.70082
C         27.85821        41.38210         1.56011
C         26.66872        42.14394         1.74537
C         27.95740        44.31873         1.53509
C         26.72992        43.61381         1.89910
C         27.97375        45.76882         1.53655
C         26.79392        46.51591         1.54009
C         28.12350        48.63758         1.22352
C         26.83421        48.02929         1.72803
C         28.16107        50.00726         0.84048
C         26.98426        50.70277         0.46327
C         28.31261        52.82495         0.21273
C         27.04488        52.09298         0.07633
C         28.30903        54.19873         0.07200
C         26.98689        54.91683        -0.05988
C         27.07338        56.36483        -0.46781
C         29.52813        12.64280        -0.75771
C         30.74115        14.77931        -1.20003
C         29.56597        14.05826        -0.80776
C         30.80274        16.18896        -1.30865
C         29.61249        16.96515        -0.88596
C         30.68140        19.08484        -1.89350
C         29.51142        18.40198        -1.30179
C         30.63928        20.47247        -2.02273
C         29.39457        21.19490        -1.63621
C         30.62135        23.40885        -1.83245
C         29.39331        22.67830        -1.44911
C         30.60596        24.82753        -1.92769
C         29.33714        25.58170        -2.05058
C         30.59621        27.76273        -1.93301
C         29.31834        27.07318        -2.01762
C         30.74131        29.22767        -1.86228
C         29.65148        30.12810        -2.18759
C         30.64805        32.12426        -1.30489
C         29.42319        31.35670        -1.59987
C         30.60368        33.36612        -0.51700
C         29.24916        33.84224        -0.13933
C         30.38561        35.79016         1.04400
C         29.12966        35.09828         0.69278
C         30.31862        37.08331         1.56780
C         29.01967        37.73394         1.97064
C         30.25318        39.92445         1.57031
C         29.03320        39.22788         1.62751
C         30.29037        41.33852         1.34953
C         29.10433        42.08745         1.40655
C         30.37206        44.26431         1.33587
C         29.13830        43.56021         1.37233
C         30.43201        45.68094         1.39667
C         29.25001        46.45051         1.46043
C         30.58224        48.53338         1.12841
C         29.30042        47.87575         1.29477
C         30.62718        49.92331         0.91598
C         29.44555        50.68365         0.73203
C         29.49451        52.06179         0.46544
C         31.91197        16.91195        -1.78545
C         33.08794        19.07444        -2.20632
C         31.91363        18.34170        -1.97735
C         33.09863        20.50772        -2.25867
C         31.83746        21.23224        -2.17510
C         33.05964        23.39437        -2.23050
C         31.80203        22.64785        -2.07816
C         33.04391        24.77881        -1.66443
C         31.80117        25.56836        -1.87902
C         33.06729        27.59778        -1.31455
C         31.79330        26.98057        -1.78694
C         33.08129        29.08738        -1.01829
C         31.89593        29.85679        -1.40965
C         33.19608        31.98715        -0.77936
C         31.97084        31.32156        -1.34657
C         33.09988        33.40087        -0.25593
C         31.74254        33.96860         0.00289
C         32.81501        35.76666         1.38358
C         31.64367        35.16368         0.80994
C         32.72313        37.06526         1.95210
C         31.51287        37.78691         1.88571
C         32.72627        39.90976         1.84473
C         31.51726        39.23325         1.83907
C         32.90196        41.24696         1.17250
C         31.58386        42.01970         1.07505
C         32.90310        44.20396         1.46352
C         31.62649        43.51981         1.13340
C         32.91027        45.61421         1.47967
C         31.72121        46.36259         1.35721
C         31.76242        47.76279         1.23615
C         34.31789        21.19360        -2.23639
C         35.62246        23.36296        -1.87333
C         34.38763        22.65088        -2.28237
C         35.63794        24.69525        -1.55438
C         34.35738        25.44382        -1.41502
C         35.62577        27.55407        -1.24558
C         34.35663        26.89919        -1.43607
C         35.60293        29.04391        -0.81646
C         34.34992        29.78311        -0.79061
C         35.44195        31.67562         0.29968
C         34.36157        31.13915        -0.40162
C         35.30658        32.97321         0.97819
C         34.34031        34.00296         0.42396
C         35.22434        35.68881         1.99129
C         34.07072        35.10462         1.40719
C         35.22102        37.02949         2.36237
C         33.93732        37.72073         2.41680
C         35.29858        39.87669         2.00050
C         33.94405        39.26266         2.31937
C         35.19648        41.36443         2.18867
C         34.06898        42.03194         1.77882
C         34.03203        43.46209         1.79492
C         36.84016        25.40148        -1.16777
C         38.01533        27.45695        -0.44046
C         36.84507        26.76118        -0.91938
C         37.98320        28.75453         0.05809
C         36.67669        29.45056         0.11801
C         37.79601        31.46233         1.23346
C         36.55487        30.81889         0.74836
C         37.75703        32.76367         1.69510
C         36.46335        33.47702         1.78917
C         37.74580        35.66296         1.99310
C         36.47116        34.89292         2.33176
C         37.68691        37.04231         2.60360
C         36.46847        37.75094         2.62220
C         36.42718        39.16084         2.69858
C         39.10853        29.43423         0.62393
C         40.21395        31.38118         1.68777
C         39.03686        30.71907         1.16896
C         40.18670        32.67588         2.11597
C         38.97272        33.46971         2.06853
C         38.96553        34.82681         2.31333
O         24.45320        52.08832        -2.25348
O         33.48853        33.13844        -1.64409
O         22.91400        47.64964        -0.92634
O         21.08815        24.69279        -2.74370
O         19.33945        35.11921        -2.67005
O          8.78366        32.12044         3.15136
O         27.81957        16.83573         0.74216
O         21.21421        38.51845         2.10970
O         19.46936        22.59633         1.37365
O         29.00771        33.76035         1.30591
O         20.20440        39.75971        -1.06157
O         12.34586        39.91958         1.81857
O         33.74853        23.24932        -3.50184
O         17.40352        21.34856        -1.27313
O         11.89481        24.74512        -1.20982
O         13.44213        22.31725        -1.31079
O         17.55723        17.93918         2.54892
O         29.84913        18.05000         0.07910
O         14.91518        36.12006        -2.53219
O         35.34783        32.75492         2.43714
O         23.49137        40.77864         0.13406
O         26.13777        44.14459         3.15602
O         36.16044        29.59712         1.47929
O         20.37222        18.96478         2.43439
O         15.19461        32.78555        -3.18894
O          8.20669        33.20393        -0.45049
O         33.81212        38.60251         3.59045
O         24.55222        48.93156         2.21278
O         28.18997        33.31610        -2.38679
O         10.81589        30.76449         2.38699
O         21.95050        30.57878        -3.56398
O         23.53116        46.56771         2.79171
O         25.90155        18.30529        -2.18268
O         21.25290        34.12839         0.49023
O         29.59619        21.77095        -0.29145
O         28.53720        24.99863        -3.17219
O         17.28163        41.11970        -0.89621
O         28.09086        19.55479        -2.92852
O         31.50413        32.07148        -2.49814
O         23.15038        21.37494         1.34208
O         15.31879        25.13545         0.45096
O         11.94686        27.21264        -1.49870
O         13.70408        30.24107        -2.64508
O         23.74919        39.51526         3.45675
O         23.69170        32.80618         0.23713
O         14.34845        43.66053         1.35208
O         17.34219        31.51059        -3.44367
O         31.58718        42.80587        -0.17438
O         16.43997        43.62337        -1.64725
O         16.66468        25.83164        -2.81823
O         28.70275        29.65143        -3.08514
O         18.43589        15.40274        -0.11050
O         32.85148        28.11574         0.07795
O         33.53229        24.86516        -0.28817
O         35.98103        28.65768        -2.16858
O         18.57186        18.73500        -0.82860
H         18.12065        19.44259        -1.34167
O         25.50050        29.25852         0.25360
H         25.32986        30.20192         0.46486
O         36.46594        34.76892         3.77535
H         35.81075        34.07155         4.00236
O         26.35836        54.88818         1.26452
H         26.98855        55.27907         1.90503
O         17.01761        39.06961         2.08208
H         16.73737        39.85931         2.59944
O         12.30817        25.19109         2.40053
H         11.88669        25.02473         3.27008
O         23.28228        32.76458        -3.30729
H         23.16385        32.11721        -4.03786
O         37.74944        35.85891         0.54432
H         38.43289        36.52466         0.32125
O         35.10364        34.70075        -0.60476
H         34.83921        34.31591        -1.47570
O         26.85216        48.24916         3.17033
H         25.91159        48.36527         3.44737
O         15.58033        48.83788         1.25644
H         15.41336        47.93340         1.59879
O         20.78876        42.16029        -1.05245
H         20.38705        41.47506        -1.64021
O         29.03946        37.66520         3.42539
H         28.10207        37.66674         3.74329
O         27.93407        23.63422         0.19957
H         28.40434        22.89685         0.65545
O         23.80673        42.09568         3.48272
H         24.41105        42.68623         3.98254
O         10.45125        38.15681        -1.77786
H         11.07456        37.63756        -2.34668
O         26.80497        22.85710        -3.16864
H         25.89956        22.68060        -3.50112
O         10.31654        32.86300        -1.85615
H          9.35351        32.66147        -1.89860
O         20.18557        13.01689         3.47700
H         20.26054        12.13036         3.89067
O         25.43925        45.56696        -0.16188
H         26.28369        45.15866        -0.44961
O         22.53531        44.33834         3.33639
H         23.04901        45.05396         3.78070
O         25.46791        14.46719         2.05671
H         24.88218        14.11585         2.75916
O         21.98679        51.56646        -2.78407
H         22.88724        51.38442        -3.14035
O         12.47818        36.68885        -2.56551
H         13.31045        36.82881        -3.07941
O         18.33374        49.71640        -2.47178
H         19.21388        49.35840        -2.71666
O         21.10549        36.84202        -1.99788
H         20.59150        36.54426        -2.78464
O         26.59135        54.06265        -2.31516
H         26.08632        53.35245        -2.77769
O         11.28223        20.54652         1.76198
H         11.71048        20.72000         2.62486
O         22.21483        54.99963        -3.03894
H         23.03117        55.48491        -3.31468
O         11.74372        37.42484         1.58085
H         12.16410        38.05446         2.21556
O         15.80429        41.76446         2.30162
H         15.33146        42.58049         2.58934
O         23.47686        24.01797        -2.87253
H         22.60581        23.88157        -3.31851
O         27.22108        59.11543        -0.80510
H         27.13773        59.13427         0.16987
O         25.56800        34.14619        -2.61973
H         26.44134        33.95082        -3.03512
O         23.66659        37.30812         3.07905
H         22.72217        37.55211         3.22298
O         15.71637        22.87108        -2.37734
H         16.03123        21.95476        -2.54377
O         25.20049        14.34613        -1.58161
H         25.68206        14.80289        -2.30276
O         16.02357        45.97847        -2.37210
H         16.53305        45.17913        -2.64826
O         22.93566         8.49330         3.16239
H         22.94956         7.56459         3.48012
O         24.83385        56.27833        -2.96410
H         25.58446        55.67847        -3.19288
O         26.39343        37.50586         3.33726
H         25.49722        37.78325         3.64181
O         20.31430        28.70000        -3.91015
H         20.59779        29.51476        -4.38735
O         24.13055         8.37932        -1.15366
H         24.12249         7.43907        -1.43487
O         35.55435        39.63348         0.57442
H         34.85669        40.11836         0.05950
O         33.29654        40.93319        -0.20187
H         32.96632        41.68513        -0.75407
H          5.59215        31.38703         3.00955
H          5.31131        33.76864         2.46871
H          8.12518        27.17428         2.55978
H          6.98333        29.26913         2.91216
H          6.30823        35.93801         1.65853
H          7.29539        37.99945         1.06336
H         10.44966        22.82757         1.92161
H          9.27622        25.05664         2.23286
H          8.37704        40.21930         0.53745
H          9.74167        42.30636        -0.26249
H         12.66121        18.54182         1.52737
H         11.65541        20.74776        -0.24772
H         11.03467        44.30953        -0.70555
H         12.33046        46.43833        -0.99062
H         15.24591        14.26772         1.96519
H         13.94379        16.43237         1.73966
H         13.56333        48.53298        -0.60729
H         14.96240        50.79265        -0.57289
H         17.81406        10.05641         2.08088
H         16.53846        12.13846         2.04102
H         16.29715        52.83901        -0.74490
H         17.62217        54.87488        -0.79378
H         20.22780         5.78647         1.95493
H         19.01823         7.96217         2.08391
H         18.92757        56.89967        -0.58728
H         20.22053        58.92924        -0.15319
H         23.52028         2.39521         1.18765
H         21.48094         3.64650         1.85005
H         23.67079        62.24261         0.10991
H         21.50509        61.01478         0.19711
H         25.56482         3.57384         0.42775
H         26.82523         5.68802         0.14535
H         26.11941        58.59132        -2.46095
H         25.75781        61.06670        -0.60102
H         28.04811         7.83595        -0.17330
H         29.22716         9.94582        -0.57337
H         29.23815        54.77501         0.20170
H         27.97462        56.94068        -0.19696
H         30.43668        12.07281        -1.00380
H         31.63450        14.19484        -1.46868
H         31.60365        50.42530         0.84491
H         30.46975        52.57125         0.45175
H         32.83585        16.36218        -2.02279
H         34.05300        18.54709        -2.25034
H         33.86683        46.14239         1.60671
H         32.73914        48.26612         1.18078
H         35.25192        20.62529        -2.11003
H         36.56232        22.78963        -1.86066
H         36.06217        41.93226         2.56387
H         34.94289        43.99671         2.10488
H         37.76526        24.82069        -1.03154
H         38.96159        26.89504        -0.39966
H         38.62700        37.60642         2.72203
H         37.36977        39.70919         2.85521
H         40.08209        28.92012         0.61791
H         41.15959        30.81911         1.70547
H         41.10991        33.15754         2.47054
H         39.90752        35.33256         2.57983
