         661
 CSIRO Nanostructure Databank - Neutral Graphene Oxide Data Set
C          5.95893        31.59245         0.11037
C          5.94975        32.95116        -0.01208
C          8.42912        27.38403         0.95004
C          8.40937        28.77352         0.78274
C          7.19683        29.48133         0.50198
C          8.41229        31.61067         0.44148
C          7.18245        30.86365         0.35321
C          8.40142        33.01342         0.29925
C          7.16486        33.72458         0.08470
C          8.36164        35.88170         0.09128
C          7.16148        35.11394        -0.02201
C          8.35957        37.27822        -0.03057
C         10.80236        23.07645         1.77779
C         10.71896        24.53547         2.16104
C          9.61288        25.29553         1.47420
C         10.83045        27.45742         1.50200
C          9.62250        26.68756         1.32507
C         10.85543        28.83232         1.20563
C          9.63790        29.51724         0.88695
C         10.87554        31.64554         0.74317
C          9.64282        30.91867         0.69224
C         10.86467        33.05770         0.55556
C          9.62652        33.74788         0.36908
C         10.82591        35.87871         0.34713
C          9.60802        35.16358         0.28474
C         10.77656        37.35043         0.53303
C          9.53621        38.07731         0.15702
C         10.71718        40.30756         0.18512
C          9.53678        39.44913        -0.02481
C         10.79771        41.66828        -0.34852
C         13.31264        18.88615         1.14882
C         13.24374        20.22844         1.53936
C         12.03411        20.94964         1.52567
C         13.27743        23.08260         1.71894
C         11.97419        22.35779         1.76595
C         13.31869        24.56641         1.75364
C         12.05950        25.29586         2.10725
C         13.36820        27.47304         1.66129
C         12.07978        26.77453         1.87004
C         13.32437        28.85829         1.49545
C         12.09718        29.56419         1.23485
C         13.34850        31.70738         0.93007
C         12.10782        30.95897         0.97793
C         13.34329        33.10089         0.66944
C         12.09032        33.78984         0.51736
C         13.31671        35.92974         0.01984
C         12.05323        35.20056         0.38705
C         13.33425        37.39552         0.34302
C         12.08013        38.11028         0.62017
C         13.30019        40.28761         0.07334
C         12.06316        39.60164         0.48453
C         13.24379        41.67871        -0.15393
C         12.00186        42.38560        -0.34609
C         13.18779        44.53802        -0.85989
C         12.01595        43.81054        -0.62507
C         13.25942        45.93430        -1.10364
C         15.73510        14.79296        -0.12081
C         15.74363        16.13835         0.38231
C         14.54287        16.85380         0.54617
C         15.79700        18.79657         1.37634
C         14.54734        18.17407         1.04272
C         15.80525        20.14214         1.98185
C         14.48484        20.86774         2.04926
C         15.83620        23.08998         2.04619
C         14.52190        22.36019         2.11730
C         15.80247        24.54652         1.73145
C         14.63058        25.27668         1.80593
C         15.82786        27.41858         1.65442
C         14.61613        26.73340         1.72373
C         15.85251        28.87590         1.75298
C         14.55320        29.64847         1.63991
C         15.80286        31.76226         1.13525
C         14.58612        31.05939         1.20143
C         15.82546        33.14714         0.84875
C         14.58450        33.83500         0.63982
C         15.80283        35.95919         0.32210
C         14.58635        35.22888         0.41523
C         15.77554        37.36589         0.04762
C         14.51783        38.09972         0.13446
C         15.72308        40.18027        -0.49970
C         14.49810        39.52480        -0.01937
C         15.71372        41.66068        -0.63558
C         14.52174        42.47002        -0.16086
C         15.75162        44.47487        -1.22926
C         14.44106        43.75457        -0.96460
C         15.74727        45.93710        -1.23499
C         14.48446        46.64331        -1.23578
C         15.70367        48.80513        -1.18860
C         14.50939        48.06697        -1.31756
C         15.76373        50.20753        -1.24534
C         18.12869        10.66156        -1.42160
C         18.09409        11.97196        -0.95681
C         16.91590        12.75681        -0.87810
C         18.18055        14.62072         0.20040
C         16.89618        14.03200        -0.25904
C         18.23676        16.05032         0.61934
C         16.97015        16.79559         0.70394
C         18.33267        18.61107         1.76785
C         17.00957        18.12303         1.16952
C         18.35747        20.12961         2.22712
C         17.07892        20.91884         1.93228
C         18.38773        23.00888         1.75812
C         17.08818        22.28323         1.89410
C         18.38556        24.48507         1.56481
C         17.07513        25.20845         1.39924
C         18.39660        27.40296         1.57558
C         17.09296        26.71475         1.39145
C         18.39156        28.86486         1.37067
C         17.09271        29.59473         1.35420
C         18.34135        31.70415         0.88695
C         17.09929        31.10230         1.57039
C         18.31695        33.21163         0.87572
C         17.08068        33.87181         0.75482
C         18.27126        35.96709         0.18475
C         17.05239        35.27798         0.46321
C         18.20850        37.31175        -0.24845
C         16.99074        38.02895        -0.24871
C         18.19973        40.13495        -0.72827
C         17.01241        39.45958        -0.48991
C         18.29965        41.61095        -0.67121
C         17.01126        42.39643        -0.57557
C         18.24468        44.47157        -1.02647
C         17.02628        43.80132        -0.95119
C         18.22778        45.91054        -1.06720
C         16.97422        46.59956        -1.09136
C         18.25633        48.79896        -0.84118
C         16.94748        48.05946        -0.88186
C         18.25358        50.25994        -1.05799
C         16.98694        50.94716        -1.15480
C         18.20885        53.09040        -1.14497
C         16.99803        52.35134        -1.23748
C         18.22414        54.50077        -1.19915
C         20.46296         6.47758        -2.72636
C         20.52786         7.90523        -2.22389
C         19.34539         8.62626        -2.07408
C         20.57522        10.41677        -0.95296
C         19.34732         9.90388        -1.46617
C         20.57227        11.69863        -0.22348
C         19.33043        12.52674        -0.34555
C         20.71216        14.61368         0.13213
C         19.42955        14.02762        -0.40599
C         20.74683        16.00713         0.34598
C         19.48321        16.83927         0.26128
C         20.75189        18.82410         1.09649
C         19.55650        18.16837         0.98367
C         20.80068        20.21236         1.56549
C         19.65256        20.87400         1.89615
C         20.89062        23.13088         1.82575
C         19.66442        22.34346         2.29672
C         20.86805        24.50175         1.77447
C         19.59632        25.26674         2.07876
C         20.84218        27.48625         1.50083
C         19.59614        26.74074         1.65723
C         20.88914        28.87528         1.50524
C         19.61125        29.61036         1.88865
C         20.85401        31.88262         1.46640
C         19.57549        31.11599         1.56700
C         20.79715        33.23004         0.83483
C         19.56686        33.88727         0.66769
C         20.73680        35.93972        -0.08175
C         19.54092        35.28238         0.27573
C         20.72061        37.42599        -0.30673
C         19.41377        37.91131        -0.91920
C         20.56091        40.05012        -1.42606
C         19.41511        39.42494        -0.97602
C         20.65506        41.53667        -1.59596
C         19.48673        42.32243        -1.16486
C         20.73184        44.46404        -1.22729
C         19.49000        43.72226        -1.14723
C         20.71155        45.88766        -1.07374
C         19.47684        46.61736        -1.02268
C         20.73375        48.73625        -0.94475
C         19.51034        48.03583        -0.99618
C         20.78515        50.23776        -1.19777
C         19.45181        50.95461        -1.04327
C         20.66883        53.09770        -0.81612
C         19.45645        52.38223        -1.00766
C         20.67329        54.52328        -0.86832
C         19.43193        55.23258        -1.09546
C         20.65437        57.36865        -1.09111
C         19.45037        56.63925        -1.21405
C         20.69623        58.77861        -1.21950
C         22.94336         4.55317        -4.89989
C         21.74552         5.00447        -4.32251
C         22.98199         6.52216        -2.88087
C         21.76282         6.00027        -3.32997
C         22.99000         7.67067        -1.94731
C         21.75657         8.48535        -1.84462
C         23.07009        10.40127        -0.87525
C         21.79619         9.75278        -1.20621
C         23.12163        11.66959        -0.34612
C         21.89029        12.34163         0.21968
C         23.14668        14.52164         0.20577
C         21.90156        13.86159         0.10158
C         23.17128        15.92407         0.43129
C         21.97489        16.66316         0.50878
C         23.27430        18.80250         0.85273
C         21.96867        18.17798         0.46264
C         23.30570        20.20201         1.09302
C         22.14131        20.89792         1.77610
C         23.30093        23.09357         1.30517
C         22.12675        22.40754         1.56739
C         23.36455        24.54385         1.32104
C         22.15009        25.31648         1.81002
C         23.35957        27.44227         1.19632
C         22.04972        26.67241         1.08980
C         23.32896        28.89167         1.27297
C         22.13655        29.60941         1.38950
C         23.35140        31.85854         1.05137
C         22.17022        31.12233         1.70461
C         23.22618        33.17233         0.38483
C         22.07094        34.03447         0.77596
C         23.16071        35.84552        -0.61420
C         21.98190        35.28099        -0.06529
C         23.18471        37.20709        -1.29585
C         21.85356        37.92789        -1.17068
C         23.49926        40.31532        -1.56438
C         21.66913        39.15159        -1.73168
C         23.31778        41.66513        -1.36081
C         22.02423        42.34990        -1.62886
C         23.18663        44.49667        -1.04002
C         21.96765        43.77994        -1.26283
C         23.17993        45.89644        -0.99378
C         21.94452        46.60134        -0.98759
C         23.18704        48.71840        -0.48034
C         21.93321        48.02096        -0.84979
C         23.15013        50.20383        -0.17460
C         21.81412        50.94106        -0.19901
C         23.11197        53.07394        -0.56429
C         21.90320        52.40115        -0.56626
C         23.14739        54.52420        -0.60724
C         21.88064        55.23776        -0.69928
C         23.07436        57.38345        -0.60400
C         21.87525        56.66103        -0.79490
C         23.10798        58.77830        -0.73949
C         21.89852        59.48997        -1.06512
C         23.15747        61.58250        -1.03558
C         21.95974        60.90978        -1.20270
C         24.15728         5.08666        -4.50285
C         25.43886         6.66432        -3.12099
C         24.21525         6.08837        -3.48308
C         25.58765         7.52418        -1.89602
C         24.29225         8.26940        -1.53284
C         25.60290        10.12044        -0.51015
C         24.36194         9.78788        -1.38133
C         25.68772        11.62592        -0.04848
C         24.37862        12.39181        -0.19567
C         25.63707        14.54757        -0.21793
C         24.38208        13.75370         0.03154
C         25.73423        15.81562         0.60294
C         24.45454        16.58113         0.78935
C         25.71171        18.73807         0.66816
C         24.49513        18.06577         0.81015
C         25.65673        20.16849         0.37504
C         24.49345        20.89170         0.89606
C         25.83032        23.06358         0.72703
C         24.57073        22.33723         1.12123
C         25.71576        24.54504         0.40512
C         24.51632        25.24854         1.02364
C         25.85014        27.40288         1.00794
C         24.53425        26.70893         1.08695
C         25.87399        28.88478         0.83390
C         24.62040        29.62318         1.13961
C         25.46474        31.50178        -0.34645
C         24.57878        31.06384         0.74706
C         25.29905        32.80169        -0.81266
C         24.30801        33.71086        -0.30977
C         25.64752        35.89001        -0.69936
C         24.38032        35.13848        -0.63931
C         25.60919        37.26670        -0.43036
C         24.33802        38.00391        -0.64337
C         25.58835        40.30582        -0.15431
C         24.40538        39.51071        -0.71017
C         25.76848        41.63062        -0.90480
C         24.46723        42.40719        -0.91554
C         25.66716        44.51675        -0.57192
C         24.44370        43.78166        -0.86687
C         25.67473        45.89447        -0.66430
C         24.48276        46.63504        -1.20620
C         25.65832        48.77423        -0.54968
C         24.47973        48.07153        -0.73665
C         25.63400        50.22652        -0.41598
C         24.41325        50.94694        -0.36963
C         25.58640        53.06837        -0.66218
C         24.37914        52.36188        -0.47912
C         25.68445        54.58176        -0.78781
C         24.34119        55.21826        -0.50994
C         25.56362        57.39779        -0.12798
C         24.26256        56.64678        -0.05150
C         25.55376        58.77657        -0.28491
C         24.34838        59.49819        -0.57271
C         24.34611        60.89132        -0.72809
C         26.77539         8.44143        -1.94744
C         28.03657        10.40437        -1.33596
C         26.82431         9.62523        -1.28458
C         28.08394        11.72446        -0.99202
C         26.89532        12.41608        -0.54434
C         28.17229        14.53174        -0.40891
C         26.92027        13.77999        -0.35342
C         28.23415        15.88359         0.01467
C         27.04250        16.55228         0.58891
C         28.25057        18.80426         0.26035
C         27.02417        18.06847         0.67486
C         28.20880        20.12296        -0.07230
C         26.92794        20.89019        -0.03348
C         28.22937        22.99723         0.00500
C         27.00153        22.33439         0.17193
C         28.28913        24.45089         0.28973
C         27.06257        25.19907         0.64606
C         28.27244        27.40167         0.05214
C         27.11263        26.69277         0.67402
C         28.17326        28.82052        -0.27018
C         26.91455        29.47595        -0.06678
C         28.41043        31.76010        -1.21941
C         26.55169        30.65570        -0.73022
C         28.33596        33.17365        -1.09386
C         27.16191        33.92431        -1.24827
C         28.11098        35.95384        -0.28213
C         26.96227        35.24735        -0.74981
C         28.10394        37.31408         0.08178
C         26.77409        38.01814         0.21671
C         28.03894        40.19708         0.06946
C         26.87014        39.50248        -0.10759
C         28.08299        41.65056         0.05660
C         26.91451        42.40117        -0.29020
C         27.91990        44.56636         0.55724
C         26.85178        43.77777        -0.17405
C         28.17498        45.89508        -0.15274
C         26.94955        46.63816        -0.60466
C         28.14249        48.80490        -0.31435
C         26.95273        48.11303        -0.54971
C         28.23197        50.29735        -0.59274
C         26.84907        50.93554        -0.57173
C         28.42927        53.34619         0.08188
C         26.74337        52.30147        -0.82894
C         27.97849        54.61166         0.52805
C         26.81996        55.26053         0.02949
C         26.73098        56.65381         0.18200
C         29.36187        12.48083        -1.28999
C         30.60877        14.54336        -0.60768
C         29.38265        13.88450        -0.75015
C         30.66878        15.88330        -0.20107
C         29.46282        16.56608         0.05034
C         30.71350        18.66788        -0.37878
C         29.55734        18.02773         0.43942
C         30.69051        20.15974        -0.11327
C         29.43654        20.87355        -0.57363
C         30.70258        23.07479        -0.20413
C         29.45123        22.34433        -0.22592
C         30.71527        24.47908        -0.25491
C         29.39389        25.18006        -0.43413
C         30.63989        27.34827        -0.75487
C         29.40312        26.67473        -0.23652
C         30.61318        28.82859        -0.51550
C         29.40208        29.53371        -0.59421
C         30.66586        31.71574        -0.31430
C         29.47222        30.99819        -0.71559
C         30.70022        33.08717        -0.20890
C         29.59746        33.91906        -0.79079
C         30.60693        35.90986         0.37648
C         29.34889        35.19367        -0.03843
C         30.57569        37.36995         0.35988
C         29.31392        38.01536         0.31145
C         30.52193        40.21811         0.16109
C         29.26760        39.49346         0.60529
C         30.52187        41.68134         0.37898
C         29.29324        42.34357         0.37147
C         30.49485        44.54585         0.48117
C         29.23963        43.77081         0.87227
C         30.50934        46.02065         0.60193
C         29.34104        46.70215         0.26268
C         30.49133        48.83439         0.54640
C         29.32273        48.11263         0.11729
C         30.36760        50.25805         0.73298
C         29.27633        50.99564         0.31155
C         29.20742        52.38120         0.71247
C         31.99380        16.52311         0.17026
C         33.17732        18.73465         0.15265
C         32.03173        18.02361        -0.02064
C         33.23986        20.18834         0.10430
C         31.95754        20.92271         0.10487
C         33.17669        23.07326        -0.02991
C         31.96387        22.38324        -0.09101
C         33.20399        24.51333        -0.10690
C         31.93841        25.22690        -0.26020
C         33.16931        27.37039        -0.31572
C         31.90721        26.61842        -0.35407
C         33.10774        28.77242         0.17231
C         31.82792        29.50983        -0.02872
C         32.98867        31.61645         0.69735
C         31.97974        30.98624        -0.25595
C         33.12196        33.09968         0.40252
C         31.91148        33.79905         0.16317
C         33.09829        35.92592         0.45240
C         31.89774        35.20481         0.26768
C         33.05769        37.36580         0.47809
C         31.82678        38.04554         0.35356
C         33.13058        40.28310         0.14077
C         31.82607        39.49821         0.08551
C         32.96716        41.65690         0.75633
C         31.77887        42.33948         0.65294
C         33.03612        44.56953         0.88246
C         31.79391        43.82210         0.56555
C         32.95940        45.99683         0.94518
C         31.74586        46.71770         0.79894
C         31.67065        48.14372         0.85646
C         34.41055        20.90192         0.13441
C         35.61873        23.05536         0.26781
C         34.43040        22.35231         0.12437
C         35.65689        24.49024         0.25529
C         34.42181        25.18930         0.00427
C         35.65237        27.40057         0.37277
C         34.47683        26.65077        -0.13503
C         35.61251        28.77336         0.58270
C         34.36970        29.52773         0.42990
C         35.46380        31.62081         1.27344
C         34.30130        30.86409         0.69447
C         35.61876        33.00747         0.60981
C         34.32245        33.79442         0.54810
C         35.55511        35.97512         0.67871
C         34.33697        35.22208         0.52947
C         35.53684        37.36052         0.78516
C         34.29525        38.10113         0.64318
C         35.51562        40.23741         0.92776
C         34.30163        39.49362         0.67086
C         35.46934        41.62401         1.06236
C         34.17599        42.35010         1.33654
C         34.19332        43.84783         1.11501
C         36.84095        25.21801         0.44896
C         38.06635        27.35592         0.76108
C         36.87956        26.65037         0.53959
C         38.08643        28.77561         0.95566
C         36.81510        29.49932         0.97354
C         37.96913        31.63164         1.57293
C         36.76691        30.86258         1.21949
C         38.01268        33.08663         1.38910
C         36.71254        33.85460         1.29808
C         38.05245        35.97796         1.17150
C         36.86500        35.22238         0.61553
C         37.98962        37.37839         1.23635
C         36.77557        38.10134         1.00827
C         36.74039        39.49662         1.06629
C         39.29021        29.46950         1.07123
C         40.53242        31.70419         1.27954
C         39.34510        30.86282         1.48990
C         40.47295        33.05952         1.36215
C         39.21688        33.78966         1.42252
C         39.21314        35.22952         1.41903
O         27.95784        24.69459         1.68572
O         17.54781        48.43890         0.41116
O         17.80321        42.12233         0.62553
O         20.01327        31.89725         2.69887
O         26.82516        27.08520         2.06353
O         27.29765        17.22418         1.86202
O         23.53947         7.50961        -0.55672
O         12.16153        26.16366         3.26898
O         23.77668        38.80906         0.46472
O         25.41088        15.14204        -1.62283
O         15.22973        29.44335         2.95066
O         25.95944        20.48915        -1.08491
O         11.36749        37.68491         1.83931
O         29.72689        35.23224         1.36243
O         31.04467        39.80404        -1.14372
O         11.32623        40.24989         1.53896
O         15.50171        40.88309        -1.83502
O         25.66714        29.48395         2.16550
O         15.13430        22.85429         3.33580
O         34.04500        27.15292        -1.46999
O         14.98592        43.75609        -2.29825
O         26.07615        33.27486        -1.87070
O         31.06431        20.50955         1.23531
O         32.17633        28.95498         1.29650
O         19.61411        11.82748         0.90051
O         13.29302        23.84448         0.45330
O         22.32589        31.24414         3.19614
O         38.66529        31.13549         2.75794
O         21.25001        50.42136        -2.48197
O         27.91315        46.00987        -1.57178
O         25.59245        22.72209         2.13216
O         15.03416        20.21971         3.23155
O         21.28649        42.00042        -2.82641
O         24.55381        31.92736         1.93333
O         31.17077        44.15480        -0.75110
O         22.70433        39.68097        -2.51399
O         23.17169        49.24495         0.92973
O         18.34062        14.97259         1.60188
O         25.09726        15.83853         1.89820
O         17.71154        29.17687         0.10544
O         27.33303        31.07227        -1.81775
O         17.03572        25.93930         0.12904
O         18.62778        23.59705         0.42926
O         27.92035        52.98141        -1.19375
O         18.55969        17.78593         2.89514
O         29.19445        39.64466         2.05582
H         28.41536        39.12352         2.35729
O         29.04161        25.00685        -1.85232
H         29.69990        25.54183        -2.36399
O         22.31902        34.50423         2.15653
H         22.35397        33.71390         2.74086
O         26.00155        54.87699        -2.18309
H         26.85286        54.42349        -2.37596
O         36.02036        32.67602        -0.73480
H         36.30920        33.50662        -1.18415
O         22.41406        20.72556         3.20402
H         23.28003        21.14036         3.40451
O         19.38822        37.41712        -2.29370
H         18.54851        37.71216        -2.70504
O         23.30955        30.30793         3.66805
H         24.17252        30.75080         3.44359
O         25.30863        14.02596        -2.54619
H         26.10894        14.14422        -3.11373
O         35.14701        31.80506         2.70210
H         35.29069        30.94368         3.15068
O         25.52476        24.66177        -1.03893
H         24.60276        24.40621        -1.25507
O         29.34504        43.63841         2.32803
H         29.10255        42.72158         2.58038
O         13.31460        35.88666        -1.47641
H         13.35650        34.94101        -1.73648
O         25.46736         9.29574         0.65560
H         25.97828         9.73046         1.37796
O         32.54800        31.12156        -1.59384
H         31.97947        30.63341        -2.22546
O         19.42155        14.36194        -1.82550
H         19.39189        15.35141        -1.88790
O         26.10159        41.29442        -2.27323
H         26.24212        42.12513        -2.77410
O         25.86886         6.54434        -0.84848
H         25.04333         6.48344        -0.30582
O         25.90234        11.60682         1.40236
H         25.02986        11.69143         1.84525
O         14.78947        42.90488         1.20320
H         14.58417        42.16914         1.81754
O         30.59625        27.20244        -2.25244
H         29.88784        27.79999        -2.57816
O         22.33878        25.61071         3.22519
H         22.60413        24.78272         3.67932
O         19.67568        22.43098         3.73468
H         19.19633        21.63178         4.07830
O         26.47236        37.98702         1.66636
H         25.51096        38.16863         1.76689
O         23.99000        56.55244         1.40673
H         23.85213        57.46729         1.73376
O         30.10976        34.38217        -2.10081
H         30.36006        33.59121        -2.62387
O         17.24077        31.36036         2.98054
H         16.51911        30.87068         3.44208
O         19.38176         6.31170        -3.64808
H         19.54978         6.88131        -4.42619
O         23.52414        37.02748        -2.68425
H         22.73364        36.69709        -3.15837
O         33.51312        40.59038        -1.23976
H         32.66968        40.64088        -1.75188
O         10.28098        24.50360         3.56044
H         10.71824        25.27236         4.00363
O         30.48351        18.38236        -1.77560
H         30.00837        19.14830        -2.18297
O         24.65758        46.67348        -2.66793
H         25.57423        46.97248        -2.85254
O         25.28689        40.69390         1.20769
H         24.69766        40.00415         1.59094
O         19.33117        17.14865        -1.17324
H         20.10750        17.72064        -1.40997
O         33.99314        42.21639         2.81129
H         34.77214        42.63013         3.24112
O         30.50293        11.73811        -0.84847
H         30.45627        11.65527         0.12604
O         21.22718        50.87396         1.10339
H         21.63965        50.10484         1.56660
O         32.18909        16.27021         1.57870
H         31.52754        16.82702         2.05522
O         22.02044        12.11107         1.65509
H         21.10712        12.15637         2.02784
O         18.35311        20.09583         3.68019
H         18.49904        19.12467         3.90433
O         37.17142        35.03429        -0.80417
H         37.23111        35.92264        -1.21522
O         21.86613        26.36382        -0.32807
H         21.41348        27.11907        -0.75819
O         29.91537        18.09023         1.83932
H         29.12327        17.78650         2.34516
O         20.83512        38.03684         1.00513
H         21.70720        37.78908         1.38058
O         19.48600        29.47567         3.32397
H         19.97224        30.23490         3.72615
O         27.31200        44.96785         1.81077
H         27.86655        44.58391         2.53540
O         19.44935        25.31813         3.52309
H         20.30834        25.62627         3.89341
O         32.43550        31.54260         2.03172
H         33.13935        31.83505         2.65516
O         36.30948        34.18090         2.64612
H         36.02185        33.34784         3.09149
O         24.57874        10.30321        -2.72200
H         24.52756        11.28239        -2.68826
O         29.39746        20.81596        -2.03999
H         28.55744        21.23043        -2.33441
O         21.82684        18.48226        -0.99425
H         22.65367        18.19920        -1.44196
O         18.42813        31.37825        -0.52198
H         17.56187        31.56283        -0.94074
O         28.74251        50.41094        -1.95184
H         28.78324        51.37352        -2.15334
H          5.02002        31.02430         0.03545
H          5.00328        33.48399        -0.18615
H          7.49744        26.81090         0.83273
H          6.25678        28.91450         0.42611
H          6.20886        35.64046        -0.18497
H          7.40926        37.79226        -0.24092
H          9.84476        22.53619         1.71665
H          8.66199        24.76223         1.31969
H          8.61387        39.93582        -0.37737
H          9.87656        42.15136        -0.70977
H         12.39131        18.37738         0.82693
H         11.10073        20.41247         1.29753
H         11.04800        44.33396        -0.65054
H         12.32622        46.51796        -1.08747
H         14.77028        14.36234        -0.42997
H         13.58421        16.37201         0.30510
H         13.55781        48.60716        -1.43698
H         14.82860        50.77069        -1.39018
H         17.21438        10.19918        -1.82325
H         15.97176        12.33756        -1.25933
H         16.04843        52.89448        -1.35871
H         17.27736        55.04658        -1.32998
H         20.22622         5.81905        -1.84430
H         18.39790         8.18683        -2.41801
H         18.51001        57.17712        -1.40702
H         19.76873        59.32630        -1.44451
H         22.91232         3.77685        -5.67709
H         20.78033         4.59370        -4.64994
H         23.18828        62.67550        -1.14775
H         21.04178        61.46380        -1.44626
H         25.09435         4.74333        -4.96363
H         26.35789         6.29588        -3.60329
H         26.50191        59.33487        -0.24408
H         25.28515        61.45076        -0.60916
H         27.67280         8.08024        -2.47487
H         28.93971         9.92824        -1.74756
H         28.54647        55.12312         1.32170
H         27.63390        57.20359         0.49503
H         29.45679        12.55255        -2.41310
H         31.53534        13.98766        -0.81405
H         31.18025        50.77337         1.26931
H         29.77797        52.67122         1.60894
H         32.83381        16.02398        -0.37627
H         34.11551        18.19620         0.36157
H         33.88684        46.56110         1.12777
H         32.57119        48.71564         1.12605
H         35.37416        20.37154         0.17495
H         36.55991        22.50326         0.40983
H         36.40880        42.17071         1.24659
H         35.11933        44.38638         1.37639
H         37.78278        24.66666         0.59176
H         39.01670        26.80545         0.82860
H         38.88916        37.94480         1.52495
H         37.67254        40.05007         1.25813
H         40.23413        28.95647         0.83074
H         41.48948        31.20618         1.06203
H         41.39605        33.64821         1.25071
H         40.15659        35.75341         1.63934
