         330
 CSIRO Nanostructure Databank - Neutral Graphene Oxide Data Set
C         30.71594        56.93436        -1.85342
C         30.76014        58.31706        -2.15660
C         29.67513        58.98219        -2.79653
C         30.88760        61.08606        -2.73678
C         29.74812        60.33889        -3.07593
C         32.88552        52.78597        -0.35656
C         32.86179        54.20327        -0.42725
C         31.76413        54.88519        -0.94057
C         32.92032        57.07391        -0.80625
C         31.77742        56.30446        -1.17887
C         33.02016        58.42207        -1.17804
C         31.93018        59.06930        -1.82584
C         33.16161        61.22440        -1.76782
C         31.99029        60.47313        -2.11329
C         35.31034        48.55251         0.56851
C         35.28999        49.99942         0.51812
C         34.08736        50.68005         0.13418
C         35.35245        52.79242        -0.08176
C         34.05724        52.06087        -0.03798
C         35.32294        54.27197        -0.01006
C         33.97517        54.93867         0.30988
C         35.33002        57.07985        -0.34433
C         33.99565        56.50489         0.10448
C         35.34425        58.56385        -0.41027
C         34.22372        59.19830        -0.87190
C         35.48912        61.33543        -0.94536
C         34.26525        60.62772        -1.16545
C         37.72395        44.25346         0.82090
C         37.64715        45.71565         1.11563
C         36.55767        46.41576         0.29640
C         37.72216        48.56479         1.02776
C         36.49871        47.87843         0.66869
C         37.60606        50.01807         1.47529
C         36.47019        50.69613         0.75192
C         37.63111        52.86817         1.09527
C         36.67489        52.06722         0.17632
C         37.74025        54.31009         0.64937
C         36.59596        54.96915         0.28768
C         37.84817        57.14774         0.14292
C         36.62136        56.37856        -0.10929
C         37.83334        58.54536         0.08824
C         36.52477        59.31384         0.12263
C         37.86778        61.38364        -0.30962
C         36.63009        60.71801        -0.42687
C         40.15480        40.12669        -0.04746
C         40.13971        41.50996         0.18216
C         38.92716        42.20198         0.33537
C         40.18112        44.38677         0.31941
C         38.89910        43.61110         0.54343
C         40.17385        45.78648         0.88703
C         38.97081        46.44380         0.98926
C         40.16216        48.56444         1.58084
C         38.91668        47.88118         1.15128
C         40.14387        50.04978         1.82074
C         38.91731        50.78758         1.42560
C         40.22155        52.86801         1.15077
C         38.95468        52.13810         1.21118
C         40.21515        54.29013         0.89328
C         39.00910        55.00404         0.66914
C         40.25279        57.14321         0.58275
C         39.03418        56.41928         0.44506
C         40.25356        58.56510         0.45690
C         39.04466        59.26603         0.22623
C         40.28197        61.39882         0.18392
C         39.05472        60.71067         0.06692
C         42.55425        35.96509        -1.07706
C         42.51099        37.43631        -1.37569
C         41.31957        38.10921        -0.76524
C         42.63909        40.10629        -0.17144
C         41.36494        39.41273        -0.30835
C         42.65809        41.41791         0.58175
C         41.39520        42.23244         0.41289
C         42.63411        44.24312         1.21696
C         41.40036        43.56949         0.66482
C         42.66394        45.75879         1.07116
C         41.44453        46.48441         1.05739
C         42.66975        48.57542         1.50266
C         41.45679        47.87228         1.36652
C         42.75953        49.99747         2.07435
C         41.41649        50.86425         2.09329
C         42.68204        52.89104         1.24798
C         41.43420        52.19220         1.35070
C         42.68413        54.30713         1.06218
C         41.45419        55.01006         0.91561
C         42.68311        57.16743         0.95058
C         41.46259        56.43325         0.80778
C         42.65171        58.59783         0.95393
C         41.47835        59.28689         0.65519
C         42.72130        61.42060         0.51846
C         41.48381        60.73293         0.49165
C         44.96865        33.15000        -0.88264
C         43.75808        33.84475        -0.93689
C         45.00825        35.95116        -1.55641
C         43.72258        35.25827        -1.14379
C         44.98946        37.43715        -1.25488
C         43.82943        38.12413        -1.06782
C         45.05581        40.26713        -0.57089
C         43.81180        39.51576        -0.60195
C         45.08165        41.58885        -0.16553
C         43.89005        42.25954         0.30931
C         45.15729        44.26601         1.02880
C         43.89053        43.57438         0.71158
C         45.16595        45.70771         1.54211
C         43.87697        46.45799         1.23613
C         45.20425        48.57507         1.66330
C         43.88533        47.86185         1.38347
C         45.14922        50.05216         1.30448
C         43.95424        50.74560         1.47468
C         45.14726        52.89068         1.16427
C         43.91734        52.17174         1.31054
C         45.13255        54.30617         1.05853
C         43.92207        55.03714         1.03528
C         45.14371        57.24375         1.09323
C         43.91374        56.47267         1.02107
C         45.14516        58.60529         1.24512
C         43.85879        59.36818         1.42301
C         45.15566        61.42966         0.74106
C         43.92406        60.77042         0.84131
C         46.18516        33.82923        -0.86122
C         47.34732        35.94222        -0.54526
C         46.23100        35.26028        -0.94904
C         47.35143        37.43623        -0.36285
C         46.34273        38.10380        -1.32912
C         47.60191        40.24295        -0.71788
C         46.30067        39.60369        -1.04866
C         47.57548        41.52271         0.07873
C         46.35746        42.38964        -0.30692
C         47.65385        44.39927         0.46245
C         46.40507        43.61703         0.57168
C         47.62535        45.76111         0.67428
C         46.40336        46.47628         1.06029
C         47.52305        48.61164         0.43002
C         46.38233        47.83915         1.05765
C         47.60698        50.06408         0.84765
C         46.38869        50.75834         1.06965
C         47.64349        52.89816         1.07805
C         46.39001        52.18359         1.09420
C         47.65627        54.29333         1.10458
C         46.40683        55.01684         0.88982
C         47.69779        57.23414         1.12647
C         46.42074        56.52231         0.89947
C         47.68247        58.64194         1.17236
C         46.41258        59.37760         1.52153
C         47.60675        61.46685         0.84844
C         46.39918        60.79286         0.98174
C         48.72387        38.06505        -0.48004
C         50.06608        40.17224        -0.50643
C         48.84318        39.42818        -0.58050
C         50.08248        41.56781        -0.31594
C         48.86145        42.30191        -0.07408
C         50.11252        44.40602         0.15143
C         48.86659        43.67538         0.14432
C         50.10729        45.77099         0.37604
C         48.86832        46.50770         0.53369
C         50.06158        48.64721         0.05184
C         48.84218        47.88504         0.49349
C         50.08245        50.08626         0.49491
C         48.85573        50.76495         0.77826
C         50.12023        52.90666         0.86222
C         48.88495        52.17801         0.97394
C         50.15281        54.32079         0.98364
C         48.91551        55.04146         1.43902
C         50.13808        57.21442         1.05947
C         48.90872        56.51803         1.11072
C         50.12844        58.65485         1.02258
C         48.88634        59.35999         1.08545
C         50.08334        61.49315         0.89366
C         48.87439        60.80406         0.98640
C         51.31068        42.29461        -0.30298
C         52.57631        44.39711        -0.12294
C         51.35164        43.67298        -0.07625
C         52.62409        45.77516         0.10790
C         51.40195        46.48497         0.64846
C         52.55037        48.64255         0.20201
C         51.36806        47.94588         0.29965
C         52.55000        50.09001         0.19833
C         51.30842        50.78490         0.42892
C         52.55929        52.92659         0.46160
C         51.33374        52.20677         0.60012
C         52.55752        54.33969         0.54520
C         51.35649        55.03749         0.81008
C         52.59288        57.19098         0.87185
C         51.37307        56.49429         0.92035
C         52.59617        58.64741         1.11470
C         51.33418        59.38425         1.01362
C         52.54935        61.51981         0.70413
C         51.33717        60.81114         0.91777
C         53.81056        46.51284        -0.02003
C         55.00720        48.65034        -0.03293
C         53.82180        47.92576         0.09538
C         55.02678        50.07205         0.00496
C         53.77014        50.80007         0.14267
C         55.04324        52.93341         0.22892
C         53.79067        52.21368         0.23950
C         55.07116        54.30620         0.39303
C         53.80063        55.09068         0.15717
C         55.00732        57.25285         0.40395
C         53.82524        56.53387         0.60219
C         55.05691        58.67745         0.39649
C         53.88796        59.43219         0.85975
C         54.94008        61.51654         0.06425
C         53.78877        60.87011         0.54089
C         56.22948        50.76513        -0.07723
C         57.49285        52.85016        -0.10734
C         56.29489        52.19252         0.03270
C         57.67750        54.32566         0.10922
C         56.35652        55.04087         0.44701
C         57.41185        57.23344        -0.39208
C         56.29367        56.53179         0.26626
C         57.35291        58.64072        -0.51640
C         56.18009        59.36808        -0.08593
C         57.26665        61.47614        -0.74511
C         56.13899        60.80719        -0.23055
C         58.39943        54.98880        -1.09721
C         59.55367        57.18943        -1.53003
C         58.48233        56.50325        -0.96994
C         59.58386        58.61293        -1.55730
C         58.45257        59.34111        -1.08154
C         59.54918        61.44271        -1.70769
C         58.42319        60.77280        -1.17119
C         60.68481        59.33000        -2.09453
C         60.65909        60.72191        -2.15586
O         39.93336        49.11762         2.94234
O         53.46070        59.08453         2.21684
O         47.06418        40.35756        -2.08568
O         35.40083        53.60678        -1.32299
O         36.02451        56.51722        -1.49428
O         46.45446        55.81249        -0.39250
O         45.97982        43.38985         1.95935
O         33.69997        54.65783         1.65913
O         56.56904        55.91197         1.61577
O         43.11872        49.77422         3.43537
O         45.12269        35.77825        -2.99319
H         45.81501        36.41401        -3.29490
O         41.26203        51.34533         3.44922
H         41.91630        50.80325         3.98156
O         49.92706        48.71936        -1.44353
H         50.68465        49.25041        -1.77383
O         36.22948        59.47429         1.56410
H         35.53132        58.82419         1.80586
O         37.22672        45.85158         2.50422
H         37.95444        45.53141         3.07735
O         37.23545        49.93680         2.88714
H         38.02595        49.56436         3.34955
O         45.41770        48.53860         3.09829
H         44.59057        48.95461         3.49717
O         58.59519        54.45901         1.22479
H         58.19103        55.12396         1.83671
O         51.55092        46.44346         2.12015
H         51.62970        45.50017         2.37784
O         47.45105        41.10184         1.45750
H         47.03791        41.82765         1.97970
O         46.45098        59.52883         2.99649
H         47.23153        60.08333         3.21332
O         42.75435        41.07375         2.00152
H         42.74114        41.92806         2.49861
O         42.62988        43.98543         2.66808
H         43.38454        44.50091         3.04883
O         46.84659        37.71118         0.97891
H         47.55086        37.49980         1.62628
O         47.18755        48.69887        -1.00856
H         48.04372        48.80038        -1.49485
O         43.67615        59.54463         2.87016
H         44.57482        59.68672         3.25586
O         46.48716        42.88512        -1.65391
H         46.61886        42.10277        -2.24413
O         37.33383        51.87340        -1.10011
H         36.94173        52.53913        -1.71649
O         59.69978        54.41922        -1.20029
H         60.03063        54.33411        -0.27742
O         40.26023        44.60815        -1.13756
H         40.18812        43.73022        -1.56962
O         36.83427        46.28976        -1.10446
H         37.73213        46.64328        -1.27542
O         53.74001        55.20629        -1.33216
H         53.51759        54.31593        -1.68123
O         45.17513        45.61247         2.99101
H         45.87247        44.95977         3.22842
O         33.77862        57.09809         1.40600
H         33.57891        56.30191         1.99227
O         37.00122        52.86768         2.39858
H         37.67838        53.05630         3.08058
O         42.31542        37.56668        -2.83315
H         42.45545        38.50860        -3.06601
O         46.83595        37.88865        -2.67473
H         47.18939        38.75869        -2.98563
O         48.95973        55.01250         2.92589
H         49.84874        55.32792         3.19750
H         29.83463        56.34516        -2.14851
H         28.77462        58.40944        -3.06097
H         30.92082        62.16266        -2.95791
H         28.90165        60.84076        -3.56552
H         31.97464        52.22286        -0.62289
H         30.87971        54.31355        -1.26788
H         33.19145        62.29644        -2.01670
H         34.38850        48.00820         0.31507
H         33.15421        50.09935         0.06813
H         35.55050        62.38648        -1.27022
H         36.79551        43.66906         0.92027
H         35.56920        45.93032         0.48473
H         37.92531        62.45465        -0.56140
H         39.19775        39.59232        -0.14490
H         37.97983        41.64197         0.33917
H         40.29997        62.48872         0.03009
H         41.61249        35.45167        -0.82566
H         40.34311        37.61321        -0.87972
H         42.74793        62.48005         0.21829
H         44.95847        32.05776        -0.75813
H         42.80968        33.30243        -0.80649
H         45.16608        62.48470         0.42202
H         47.11582        33.27741        -0.65847
H         48.21554        35.37305        -0.17009
H         47.60139        62.52975         0.56157
H         49.61813        37.43553        -0.34888
H         51.02255        39.63028        -0.55695
H         50.07589        62.58686         0.77537
H         52.25121        41.75271        -0.48408
H         53.49877        43.86439        -0.40100
H         52.49656        62.60663         0.53948
H         54.74800        45.99124        -0.26755
H         55.95926        48.11167        -0.15306
H         54.90469        62.59810        -0.13587
H         57.16865        50.20492        -0.19881
H         58.40688        52.26835        -0.30018
H         57.23879        62.57119        -0.84972
H         57.84317        54.75450        -2.04645
H         60.38492        56.61724        -1.96736
H         59.54368        62.54031        -1.77118
H         61.56023        58.77677        -2.46336
H         61.52206        61.26199        -2.57038
