         349
 CSIRO Nanostructure Databank - Neutral Graphene Oxide Data Set
C          1.78599         2.20512        -2.12853
C          1.66879         3.57950        -1.89362
C          2.87092         1.46306        -1.64873
C          2.62175         4.27458        -1.11992
C          1.40340         6.45746        -1.15244
C          1.39222         7.81023        -1.09689
C          2.61615         5.68637        -0.95953
C          2.69068         8.56827        -1.15060
C          1.54609        10.79360        -1.37971
C          1.47548        12.17398        -1.18587
C          2.60769        10.04841        -0.84647
C          2.52457        12.85754        -0.56580
C          1.30789        15.09781        -0.81863
C          1.41282        16.41846        -1.11936
C          2.44286        14.32915        -0.20700
C          2.65713        17.12812        -1.07919
C          2.72472        18.48803        -1.37244
C          3.86043         2.06488        -0.84474
C          3.66654         3.47332        -0.45253
C          5.02270         1.38829        -0.43955
C          4.83831         4.20457         0.20884
C          3.80025         6.36956        -0.50583
C          3.81474         7.83753        -0.44630
C          4.87589         5.65559         0.01777
C          4.88291         8.52574         0.05740
C          3.66676        10.72076        -0.21153
C          3.66213        12.13249        -0.12182
C          4.69047         9.93954         0.58168
C          4.87739        12.85154         0.26078
C          3.79456        14.99178        -0.36454
C          3.94529        16.34791        -1.02020
C          4.89638        14.28741         0.01984
C          5.16885        17.15829        -0.58702
C          3.95324        19.14862        -1.45311
C          5.19645        18.56389        -1.06729
C          6.13917         2.04066         0.13728
C          6.11831         3.47393         0.40734
C          7.35545         1.34277         0.27444
C          7.25542         4.14191         0.78964
C          6.02623         6.37130         0.58690
C          6.20694         7.80168         0.14233
C          7.22343         5.59372         1.06588
C          7.34249         8.49294         0.85841
C          5.99923        10.70378         0.85066
C          6.05981        12.15998         0.55444
C          7.29540         9.97050         1.03748
C          7.35430        12.79403         0.52340
C          6.16087        15.01460         0.37311
C          6.23293        16.45899        -0.06980
C          7.38821        14.19118         0.04244
C          7.55438        17.03939         0.11940
C          6.32714        19.37388        -1.28399
C          7.63983        19.09161        -0.78075
C          8.56656         2.00344         0.56152
C          8.55569         3.42103         1.08684
C          9.78548         1.36704         0.34797
C          9.78956         4.20712         0.66101
C          8.54717         6.30408         1.33652
C          8.46440         7.80721         1.17954
C          9.70615         5.71959         0.50482
C          9.71804         8.51702         1.63789
C          8.59488        10.69989         1.01313
C          8.57274        12.13581         0.77147
C          9.74738         9.99159         1.24930
C          9.82020        12.88594         0.81092
C          8.70808        14.88261        -0.13069
C          8.71644        16.36722        -0.11501
C          9.90922        14.20503         0.38327
C         10.00057        17.04812        -0.44122
C          8.87641        19.33046        -1.30549
C         10.07305        18.51841        -0.90338
C         11.00922         2.09757         0.29878
C         10.95489         3.55881         0.39445
C         12.20302         1.45158         0.00779
C         12.16949         4.35576        -0.03689
C         11.00652         6.43480         0.86041
C         10.98451         7.77043         1.22272
C         12.23923         5.71371         0.62628
C         12.24653         8.48304         1.51947
C         11.00984        10.71848         1.53256
C         11.01615        12.22180         1.40355
C         12.30114         9.98103         1.44085
C         12.34815        12.98040         1.44936
C         11.16305        14.96149         0.41734
C         11.23432        16.37258         0.03297
C         12.33087        14.27613         0.67354
C         12.43830        17.07319         0.03420
C         11.32611        19.20510        -0.62733
C         12.49303        18.50698        -0.25908
C         13.45235         2.15506        -0.07697
C         13.46412         3.57762         0.05176
C         14.65964         1.44716        -0.20738
C         14.69299         4.25033         0.15212
C         13.46967         6.30489         0.84188
C         13.51418         7.68970         1.35487
C         14.72680         5.64970         0.51703
C         14.76468         8.42442         1.01229
C         13.48268        10.65571         1.24107
C         13.57513        12.11604         1.16308
C         14.74655         9.90572         0.99048
C         14.77883        12.74281         0.99129
C         13.61654        14.94172         0.43409
C         13.67684        16.40361         0.35650
C         14.88774        14.19027         0.66927
C         14.90531        17.03975         0.45873
C         13.71888        19.17331        -0.17855
C         15.02543        18.48744         0.05148
C         15.90838         2.11753        -0.21513
C         15.92386         3.53957        -0.01458
C         17.13230         1.42370        -0.36011
C         17.16098         4.23748        -0.00938
C         15.96330         6.29132         0.65442
C         16.03277         7.65483         1.29889
C         17.18533         5.63861         0.30424
C         17.28054         8.43093         0.98243
C         16.04096        10.58374         1.09377
C         16.06799        12.02915         0.71563
C         17.24736         9.86929         1.08547
C         17.28620        12.76060         1.20708
C         16.09692        14.95235         1.04370
C         16.08803        16.34413         0.93923
C         17.29111        14.19267         1.38964
C         17.25343        17.13536         1.45827
C         15.92781        19.24224         1.04877
C         17.29310        18.59432         1.06932
C         18.36754         2.10924        -0.37865
C         18.37956         3.54313        -0.24598
C         19.60218         1.42174        -0.49123
C         19.60756         4.26111        -0.36449
C         18.41674         6.35012         0.27409
C         18.45282         7.75610         0.61289
C         19.61552         5.69751        -0.15819
C         19.69472         8.46925         0.52314
C         18.46790        10.60875         1.10672
C         18.47499        12.01918         1.25194
C         19.77813         9.86638         1.10639
C         19.75096        12.70678         1.44937
C         18.46253        14.84794         1.75620
C         18.47912        16.30454         1.94701
C         19.76926        14.11693         2.00686
C         19.80887        16.94346         1.96160
C         18.36641        19.36008         0.73855
C         19.74287        18.98701         1.04489
C         20.82426         2.11915        -0.56806
C         20.80916         3.55762        -0.58824
C         22.06535         1.43356        -0.67709
C         22.04586         4.26912        -0.91888
C         20.80790         6.44072        -0.28867
C         20.83703         7.82057         0.06365
C         22.04761         5.82118        -0.79073
C         22.13019         8.54224        -0.03450
C         20.81161        10.74898         0.39282
C         20.90562        12.07112         1.13063
C         22.14123        10.00601         0.23007
C         22.20798        12.73545         1.48341
C         20.97741        14.88868         1.47174
C         20.97670        16.33783         1.50354
C         22.14471        14.21446         1.20941
C         22.16677        17.05771         1.04965
C         20.91507        19.15752         0.40183
C         22.19332        18.59208         1.02820
C         23.30459         2.11119        -0.72600
C         23.34163         3.56413        -0.78970
C         24.51582         1.40522        -0.79989
C         24.54487         4.24583        -0.76817
C         23.35131         6.46253        -0.56569
C         23.41187         7.77346        -0.07374
C         24.57087         5.72745        -1.10175
C         24.62223         8.48425         0.07593
C         23.38226        10.58578         0.83286
C         23.42717        12.05239         0.93829
C         24.65858         9.82200         0.68551
C         24.59456        12.74078         0.71257
C         23.32883        14.90007         0.76495
C         23.26730        16.34624         0.60351
C         24.51081        14.17864         0.57173
C         24.30190        16.99367        -0.27165
C         23.41130        19.17425         0.36108
C         24.41626        18.48189        -0.23709
C         25.77723         2.06917        -0.78761
C         25.79637         3.53442        -0.68910
C         26.95017         1.32857        -0.86586
C         27.00952         4.21497        -0.57254
C         25.89773         6.44027        -0.78198
C         25.90537         7.88244        -0.29821
C         27.11525         5.65342        -0.50751
C         27.15763         8.47847         0.21537
C         25.93120        10.58362         0.68310
C         25.88270        12.02778         0.61300
C         27.13927         9.87580         0.60867
C         27.05419        12.74040         0.38473
C         25.71235        14.90633         0.13936
C         25.49569        16.13219        -0.68191
C         27.02622        14.18081         0.05915
C         26.64952        16.60619        -1.45078
C         25.65094        19.20604        -0.56166
C         26.64179        18.83793        -1.42485
C         28.26328         1.95499        -0.51150
C         28.26179         3.44766        -0.75132
C         29.51425         1.30548        -1.04847
C         29.55636         4.15357        -0.60720
C         28.30806         6.31278        -0.17122
C         28.32888         7.71842         0.15338
C         29.54556         5.47375         0.13383
C         29.60136         8.34949         0.60554
C         28.40717        10.58380         0.84022
C         28.37724        12.14563         0.58859
C         29.67462         9.81873         0.75053
C         29.55975        12.92141         0.14183
C         28.08598        14.71844        -0.79819
C         27.86868        15.91176        -1.50471
C         29.41413        13.99892        -0.92657
C         29.02421        16.36383        -2.35417
C         28.00074        19.33505        -1.51168
C         28.72631        19.17821        -2.67284
C         30.70181         1.95364        -1.00004
C         30.80842         3.35281        -0.61559
C         31.99064         4.02945        -0.49900
C         30.88171         6.17991         0.00118
C         30.92098         7.57995         0.48985
C         32.00975         5.45032        -0.23856
C         32.15101         8.37451         0.45312
C         30.89597        10.37488         1.07490
C         30.80112        12.72265         0.71748
C         32.13383         9.67441         0.85244
C         31.87814        13.63973         0.55865
C         30.50563        15.06769        -0.87590
C         30.31772        16.29256        -1.60885
C         31.68544        14.81714        -0.14703
C         31.24785        17.32447        -1.65137
C         30.18267        19.36864        -2.79964
C         31.20251        18.59081        -2.33354
O         30.19774         7.67697         1.78372
O         14.69448         9.07097        -0.28821
O         26.07938         7.53543        -1.73864
O         10.17535        17.38279        -1.86847
O         14.40377        14.37833        -0.71372
O          7.99158        14.30377        -1.28427
O         19.78983        18.29337         2.29767
O          6.18924         6.05078         1.99747
O          9.76029         8.46147         3.05440
O         26.70625        15.09937         1.20161
O          3.71624         3.69980         0.99704
O         10.80600        11.59391         2.71055
O         22.26034         9.54338        -1.15273
O         31.04617        11.66700         1.60386
O         17.49061        16.87214         2.87771
O         12.98726         7.93431         2.68269
O          7.62683        18.39233         0.44451
O         24.29332        16.24108        -1.52775
O         28.93422        16.62754        -3.54378
O         28.42954        11.54524         1.92076
O         26.43438        17.69179        -2.27155
O         28.93891         4.02026        -1.93076
O         21.91008         5.14761        -2.07645
O         23.90195         9.85972         2.00025
O          6.48709        10.39026         2.20819
O         28.34413         1.83650         0.95858
H         28.37010         0.88235         1.18174
O          6.64718         7.67654        -1.25662
H          6.65893         8.56947        -1.66064
O         28.06397        18.99419        -3.83204
H         28.67647        18.69364        -4.53232
O         16.04095         7.43666         2.74840
H         16.70716         6.74666         2.94902
O         16.20413        12.00439        -0.75776
H         15.52928        11.38185        -1.10695
O          3.09718         8.52602        -2.57095
H          3.17953         7.58109        -2.82220
O          8.62745         3.31187         2.54023
H          8.66925         4.23760         2.89988
O          4.04825         9.75311         1.87779
H          4.77747         9.67594         2.54058
O         19.94616        14.04325         3.44979
H         20.79571        13.55707         3.60243
O         15.36808        19.20554         2.36084
H         15.74424        18.44683         2.85475
O          8.86429         6.03715         2.72431
H          9.21387         6.89036         3.14001
O         29.45281        13.32016        -2.23307
H         29.49991        14.00908        -2.93083
O         22.33439        12.61059         2.95584
H         22.55793        11.67365         3.15421
O          4.21579        16.01482        -2.43485
H          4.31445        16.86244        -2.91947
O         29.42915         5.09215         1.53861
H         29.60997         5.91031         2.06504
O         22.30515        19.04353         2.39986
H         21.46373        18.81481         2.86019
O         11.96030         4.64387        -1.47681
H         12.02527         3.78994        -1.95616
O          2.15609        14.35686         1.24152
H          2.67626        13.63814         1.66167
O         20.23223         9.72177         2.48696
H         19.52102         9.27884         2.99609
O         24.44566         5.75403        -2.55172
H         24.75903         6.64129        -2.84380
O         20.29171        11.06700        -0.91090
H         20.77232        10.50049        -1.56267
O         12.53004        13.44251         2.82355
H         12.03782        12.80284         3.39547
O          9.43235         5.96650        -0.89790
H         10.21963         5.64172        -1.40012
O          6.17705        15.06485         1.83867
H          5.34547        15.48769         2.14069
O         15.76497        18.53507        -1.21250
H         15.24646        18.03695        -1.87990
H          1.03239         1.70617        -2.75359
H          0.84131         4.13151        -2.36186
H          2.97074         0.40243        -1.92114
H          0.45311         5.90879        -1.23227
H          0.43815         8.35340        -1.16071
H          0.74031        10.28723        -1.92878
H          0.59908        12.72175        -1.55807
H          0.31801        14.62003        -0.84838
H          0.51553        16.98126        -1.42253
H          1.79813        19.04742        -1.56940
H          5.11941         0.31953        -0.68644
H          3.96271        20.20156        -1.77077
H          7.38932         0.27932        -0.01133
H          6.18383        20.27963        -1.89461
H          9.80045         0.29928         0.07789
H          8.98022        19.90958        -2.23529
H         12.21099         0.35585        -0.09276
H         11.35990        20.30206        -0.70176
H         14.63425         0.35120        -0.29854
H         13.75754        20.24307        -0.43643
H         17.12147         0.32920        -0.47017
H         16.01114        20.31294         0.73034
H         19.60545         0.32242        -0.53071
H         18.18092        20.38009         0.36174
H         22.06196         0.33372        -0.70084
H         20.95654        19.66806        -0.56991
H         24.49674         0.30530        -0.82301
H         23.51929        20.26402         0.47465
H         26.88748         0.23137        -0.94546
H         25.78386        20.15834        -0.02610
H         29.46969         0.25219        -1.36607
H         28.50194        19.67627        -0.59653
H         31.62643         1.43025        -1.29001
H         32.95052         3.50294        -0.59932
H         32.99457         5.94018        -0.21537
H         33.09160         7.90504         0.13405
H         33.06787        10.24888         0.92120
H         32.81974        13.45366         1.09005
H         32.49449        15.56086        -0.15256
H         32.21439        17.14129        -1.15591
H         30.47535        20.24505        -3.40499
H         32.20975        19.00952        -2.50691
