         651
 CSIRO Nanostructure Databank - Neutral Graphene Oxide Data Set
C          6.43248        31.42723        -1.70185
C          6.64715        32.71120        -2.12324
C          8.34990        27.41266         0.32358
C          8.31391        28.81402         0.34050
C          7.22495        29.51907        -0.29567
C          7.93833        31.87406         0.12590
C          7.16464        30.89397        -0.57786
C          8.29019        33.14304        -0.32462
C          7.56237        33.64060        -1.48767
C          8.36101        35.99635        -1.41395
C          7.70692        34.90727        -2.07162
C          9.00105        37.10789        -1.92170
C         10.93689        23.22721         0.36015
C         10.67961        24.41724         1.24692
C          9.52752        25.26801         0.75514
C         10.75756        27.39357         0.85687
C          9.53101        26.66428         0.67623
C         10.77915        28.79556         0.76378
C          9.53776        29.50648         0.70678
C         10.76961        31.66679         0.81697
C          9.59705        30.87877         0.96016
C         10.70800        33.08153         0.62127
C          9.49884        33.77790         0.23896
C         10.78096        35.92674         0.19541
C          9.58323        35.17154         0.16001
C         10.80172        37.32181        -0.16555
C          9.93552        37.89481        -1.12525
C         11.01001        40.15620        -0.89047
C         10.10732        39.26028        -1.49270
C         11.04313        41.48266        -1.43674
C         13.55273        19.20994        -0.99522
C         13.03701        20.25156        -0.21065
C         12.23303        21.35813        -0.49359
C         13.28431        23.05612         1.12945
C         12.12199        22.51292         0.39032
C         13.27901        24.47863         1.38010
C         11.97612        25.19226         1.43569
C         13.28268        27.32676         0.92502
C         11.98323        26.67741         1.25971
C         13.26220        28.81253         0.68635
C         11.99778        29.55190         0.82837
C         13.25547        31.70733         0.85942
C         12.01568        30.95299         0.79996
C         13.19991        33.11434         0.86429
C         11.94892        33.82187         0.67946
C         13.27925        35.95905         0.31983
C         11.97515        35.21986         0.48297
C         13.18555        37.43086         0.65741
C         11.85272        38.15747         0.53512
C         13.10050        40.28443         0.50246
C         11.99682        39.59731         0.04253
C         13.21650        41.72646         0.46007
C         11.70401        42.57921        -0.85145
C         13.27944        44.51299        -0.85181
C         12.20471        43.75120        -1.43450
C         13.49580        45.81657        -1.28752
C         16.07726        15.05383        -1.59529
C         16.02554        16.39298        -1.12338
C         14.84896        17.16698        -1.22472
C         15.88068        18.98267         0.06491
C         14.73801        18.44971        -0.64861
C         15.84330        20.29404         0.71738
C         14.61778        20.95969         1.05753
C         15.72415        23.01115         1.79142
C         14.49761        22.34053         1.31634
C         15.71304        24.50420         1.92138
C         14.46164        25.21651         1.56834
C         15.72132        27.37048         1.41578
C         14.53311        26.64656         1.35157
C         15.80532        28.78942         1.00873
C         14.54522        29.57390         0.74472
C         15.67190        31.73351         1.38909
C         14.50741        31.03170         1.01315
C         15.63916        33.14803         1.43430
C         14.42015        33.86204         1.08301
C         15.56653        36.02432         1.58391
C         14.41769        35.24980         1.00149
C         15.60083        37.46751         1.16683
C         14.33427        38.12214         0.98139
C         15.60907        40.34915         0.92190
C         14.29721        39.59868         1.03430
C         15.67547        41.70596         0.23117
C         14.36221        42.44077         0.30445
C         15.60196        44.65579         0.26227
C         14.28983        43.91799         0.08893
C         15.77660        45.98926        -0.34404
C         14.67431        46.58319        -0.99666
C         15.94769        48.66116        -1.26198
C         14.78563        47.93160        -1.44621
C         16.02182        50.07789        -1.78675
C         18.32407        10.66610        -1.95609
C         18.33178        12.03631        -1.59990
C         17.19141        12.86461        -1.75164
C         18.43655        14.81551        -0.88705
C         17.22730        14.24041        -1.43439
C         18.52983        16.32870        -0.72058
C         17.19561        17.01432        -0.58197
C         18.46732        19.02343         0.24083
C         17.13649        18.29607        -0.03371
C         18.24869        20.11499         1.26845
C         17.02397        20.94520         1.05544
C         18.24632        23.14436         1.26459
C         17.04120        22.29193         1.64878
C         18.31037        24.52896         1.87184
C         17.00909        25.24799         1.99585
C         18.29313        27.44833         1.75517
C         16.98595        26.73798         1.85647
C         18.35278        28.90968         1.43894
C         17.05100        29.60106         1.27391
C         18.17646        31.70031         2.12163
C         16.85429        30.93420         1.96038
C         18.11843        33.18219         1.89438
C         16.85744        33.89315         1.56952
C         18.08537        36.02175         1.26658
C         16.87027        35.28251         1.44580
C         18.06933        37.40437         1.12410
C         16.82551        38.15961         1.09382
C         18.08531        40.31899         0.88517
C         16.86204        39.57462         0.88475
C         18.08413        41.78530         0.95669
C         16.86583        42.52150         0.70952
C         18.01402        44.71535         0.97208
C         16.83190        43.90181         0.64208
C         18.13128        46.09760         0.45132
C         17.00234        46.70057        -0.19858
C         18.30544        48.78852        -0.47751
C         17.08665        48.05137        -0.65592
C         18.32922        50.20339        -0.74196
C         17.21617        50.85950        -1.28684
C         18.40024        53.07387        -1.31327
C         17.28250        52.22913        -1.56589
C         18.47492        54.20920        -2.14574
C         20.75953         6.42533        -2.76531
C         20.72597         7.77171        -2.32712
C         19.52494         8.51824        -2.28829
C         20.73488        10.50595        -1.48805
C         19.50075         9.88032        -1.89575
C         20.72809        11.85372        -1.01767
C         19.52746        12.61489        -1.04427
C         20.69108        14.45699         0.23745
C         19.52181        13.99045        -0.62837
C         20.77922        15.95905         0.18694
C         19.48727        16.67838         0.43979
C         20.69442        18.70095         1.42041
C         19.64046        18.15976         0.72961
C         20.73214        20.15070         1.80210
C         19.49927        20.94237         1.57837
C         20.82255        23.02639         1.92941
C         19.64038        22.41372         1.18882
C         20.82134        24.52284         2.16500
C         19.49288        25.20023         1.88113
C         20.81310        27.37382         1.81476
C         19.53633        26.65107         1.45535
C         20.74963        28.82471         2.18513
C         19.53817        29.62115         1.97643
C         20.74192        31.78723         2.22506
C         19.51742        31.00479         2.10776
C         20.58085        33.24743         2.04219
C         19.39240        33.86332         1.67219
C         20.65700        35.98553         0.95800
C         19.35128        35.24434         1.14631
C         20.61338        37.46547         0.96449
C         19.30319        38.14585         0.66581
C         20.51461        40.32945         1.31875
C         19.28489        39.61373         1.00392
C         20.54723        41.78762         1.16918
C         19.29815        42.47701         1.11256
C         20.60407        44.64144         1.09004
C         19.32969        43.94185         1.23432
C         20.57707        46.15745         1.19097
C         19.35621        46.78457         0.51932
C         20.74608        48.79944        -0.07901
C         19.44138        48.11480         0.04096
C         20.76920        50.29597        -0.26646
C         19.47151        51.02984        -0.28082
C         20.86949        53.23236        -0.27211
C         19.50908        52.56788        -0.43419
C         21.01846        54.59231        -0.49706
C         19.45044        55.22182        -1.96230
C         21.29818        56.75294        -2.71974
C         20.06136        56.02199        -2.90821
C         21.58174        57.74567        -3.65626
C         23.21259         3.67257        -3.43305
C         22.00321         4.36306        -3.32454
C         23.21886         6.35028        -2.54783
C         21.97684         5.71045        -2.88034
C         23.22675         7.69896        -2.09206
C         21.96689         8.41877        -1.97486
C         23.23463        10.45506        -1.41283
C         21.94341         9.75877        -1.57544
C         23.25426        11.86753        -0.95703
C         21.96432        12.51244        -0.65312
C         23.20581        14.51387         0.01819
C         21.97432        13.80600        -0.19070
C         23.20717        15.90369         0.04826
C         21.93296        16.56554        -0.23077
C         23.23777        18.81350         1.10932
C         22.05098        18.06030         1.72045
C         23.23135        20.18189         1.30046
C         22.08361        20.82320         2.05053
C         23.32289        23.06211         2.16191
C         22.00503        22.34349         1.96380
C         23.29693        24.51995         1.72466
C         21.97629        25.18625         1.39139
C         23.25913        27.44330         1.40736
C         21.97870        26.69548         1.65361
C         23.29324        28.89451         1.85798
C         22.06819        29.63349         2.23689
C         23.31794        31.73739         2.04787
C         22.00765        31.12005         2.18651
C         23.54606        33.15759         2.26301
C         21.67897        34.17360         2.22169
C         23.13985        36.16232         1.77466
C         21.84177        35.37360         1.59797
C         23.06064        37.35970         0.80623
C         21.78933        38.13359         0.99950
C         23.07036        40.33001         0.93925
C         21.86245        39.58180         1.24879
C         23.04034        41.74529         1.09956
C         21.77845        42.45888         1.18471
C         23.06169        44.57100         1.09873
C         21.79340        43.90694         1.12865
C         23.08699        45.97408         0.71189
C         21.87725        46.77962         0.72162
C         23.25275        48.79450         0.31175
C         21.98013        48.10006         0.34451
C         23.27223        50.24088        -0.00599
C         22.01844        51.01750        -0.00538
C         23.26154        53.00528         0.54495
C         22.02837        52.39919         0.08500
C         23.39591        55.10656         0.02636
C         22.20998        55.40632        -0.75863
C         23.64284        57.15201        -1.70446
C         22.30709        56.39867        -1.72504
C         23.88433        58.08267        -2.86477
C         22.83669        58.44163        -3.73595
C         24.31481        60.04996        -4.81705
C         23.06814        59.43364        -4.72088
C         24.42042         4.28340        -3.10442
C         25.67193         6.26479        -2.29813
C         24.45219         5.63237        -2.65189
C         25.69239         7.59685        -1.84567
C         24.45558         8.29951        -1.75756
C         25.75511        10.46446        -1.39869
C         24.47451         9.65149        -1.10619
C         25.70532        11.73923        -0.56053
C         24.51776        12.39082        -0.36447
C         25.73161        14.54545         0.35763
C         24.43475        13.73880         0.23766
C         25.64094        15.99287         0.16378
C         24.41824        16.67241         0.25287
C         25.56721        18.84739         0.27950
C         24.40585        18.12268         0.50392
C         25.58008        20.31471         0.47700
C         24.41309        20.99902         1.10211
C         25.77371        23.05020         1.53299
C         24.47179        22.32366         1.47168
C         25.79239        24.52805         1.55457
C         24.51610        25.23493         1.63621
C         25.79383        27.37052         1.69952
C         24.51477        26.64914         1.64447
C         25.78135        28.87792         1.73226
C         24.47405        29.59022         1.69964
C         25.76889        31.80542         1.60957
C         24.47733        31.01377         1.76051
C         25.50290        33.10768         0.82791
C         24.47570        33.90857         1.60070
C         25.52761        36.01861         1.00468
C         24.42054        35.35527         1.47335
C         25.50491        37.43526         0.59068
C         24.28515        38.22823         0.78866
C         25.56323        40.35538         0.39425
C         24.27760        39.60074         0.61695
C         25.55230        41.76520         0.90801
C         24.26064        42.45386         1.15522
C         25.53543        44.59810         1.31866
C         24.28097        43.87459         1.17811
C         25.58880        45.97191         1.29275
C         24.45195        46.70878         0.74472
C         25.69981        48.86195         0.91959
C         24.43522        48.16927         0.69165
C         25.76267        50.27231         0.68450
C         24.58629        50.98459         0.16178
C         25.77022        53.16810         0.53145
C         24.52238        52.43887         0.43874
C         25.82327        54.70697         0.44259
C         24.67785        55.32739        -0.34353
C         26.15152        57.01690        -1.45321
C         24.86351        56.22097        -1.54706
C         26.26315        58.18605        -2.19058
C         25.16883        58.66397        -3.00255
C         25.36345        59.66986        -3.97698
C         26.92185         8.25917        -1.46564
C         28.21648        10.30230        -0.94556
C         26.99735         9.62130        -1.17564
C         28.25569        11.68761        -0.64749
C         27.00066        12.34284        -0.18903
C         28.22094        14.60384        -0.26239
C         27.02910        13.82702         0.14049
C         28.14222        15.97207        -0.38486
C         26.84560        16.69216        -0.28109
C         28.11211        18.92547        -0.23200
C         26.79888        18.21647        -0.27054
C         28.14650        20.24288         0.15454
C         26.90654        21.00372         0.44470
C         28.26960        23.09915         0.86283
C         27.03078        22.33315         1.11971
C         28.19566        24.51568         0.84967
C         26.98328        25.21767         1.23768
C         28.12227        27.37637         0.79264
C         27.01007        26.66263         1.24188
C         28.21989        28.85940         0.85702
C         27.03126        29.63424         1.37237
C         28.02279        31.70362         0.44109
C         26.94423        31.05941         1.00449
C         27.92907        33.14797        -0.00875
C         26.81925        33.84534         0.73461
C         28.05249        36.04370         0.42768
C         26.82424        35.32204         0.83567
C         28.06877        37.40398         0.53077
C         26.80307        38.14763         0.43840
C         28.03086        40.28041         1.18099
C         26.90636        39.64169         0.40365
C         28.04623        41.63613         1.40723
C         26.73950        42.34795         1.66580
C         28.08239        44.55180         1.62497
C         26.80867        43.83346         1.37849
C         28.02731        45.99179         2.05735
C         26.68988        46.76523         1.96806
C         28.04384        48.93412         1.71194
C         26.81508        48.18041         1.42786
C         28.12857        50.33626         1.27261
C         26.94625        51.01413         0.90107
C         28.25228        53.12181         0.66193
C         26.95823        52.45494         0.68194
C         28.31532        54.48046         0.23328
C         27.16146        55.20458        -0.07548
C         27.25002        56.41800        -0.78789
C         29.43766        12.42955        -0.59249
C         30.66315        14.56175        -0.53650
C         29.46671        13.86274        -0.45512
C         30.68715        16.00365        -0.78413
C         29.31982        16.76359        -0.78842
C         30.57375        18.88828        -0.61777
C         29.34779        18.22276        -0.55745
C         30.59758        20.36355        -0.60691
C         29.35206        21.04818        -0.09190
C         30.76557        22.83887         0.88601
C         29.45804        22.36530         0.58274
C         30.44902        24.70179        -0.46727
C         29.26561        25.27710         0.27660
C         30.40201        27.38594        -0.31619
C         29.24101        26.66370         0.27681
C         30.38293        28.86809        -0.44093
C         29.22263        29.60383         0.06781
C         30.35777        31.75084        -0.49678
C         29.21486        30.99281         0.00048
C         30.40442        33.14704        -0.44202
C         29.24160        33.91280        -0.03871
C         30.38387        36.10563        -0.41012
C         29.24912        35.30340         0.05251
C         30.37968        37.49092        -0.34411
C         29.33937        38.19370         0.50954
C         30.30498        40.51657         0.07938
C         29.04433        39.68812         0.22721
C         30.42360        41.79960         0.83991
C         29.30037        42.37029         1.40356
C         30.56879        44.56038         1.63809
C         29.33198        43.75602         2.01807
C         30.58329        45.93211         1.81383
C         29.35043        46.69405         2.14994
C         30.61578        48.86861         1.65705
C         29.35146        48.20108         2.06020
C         30.58797        50.27208         1.38828
C         29.39487        51.00469         1.24822
C         29.41728        52.39725         0.92029
C         31.87987        16.80186        -0.52405
C         33.08118        18.92805        -0.36421
C         31.84810        18.18627        -0.54328
C         33.15856        20.30895        -0.33892
C         31.92171        21.12535        -0.65372
C         33.11388        23.14530         0.06297
C         31.92458        22.37576         0.21062
C         33.07519        24.56761        -0.01182
C         31.76662        25.24732         0.04670
C         32.96700        27.43779        -0.40354
C         31.73102        26.74861        -0.04990
C         32.84862        28.82187        -0.85051
C         31.63765        29.58861        -0.61423
C         32.86140        31.76081        -0.93940
C         31.54989        31.01136        -1.09079
C         32.81037        33.20459        -1.05669
C         31.61855        33.86851        -0.81506
C         32.85771        36.10786        -1.01874
C         31.54878        35.35550        -0.94151
C         32.87567        37.58738        -0.76580
C         31.56095        38.32679        -0.65137
C         32.85528        40.34982         0.28959
C         31.57984        39.78067        -0.22521
C         32.92716        41.77659         0.52025
C         31.70750        42.49303         0.81189
C         32.91941        44.65269         0.84026
C         31.73798        43.86981         1.14416
C         32.98542        45.98027         1.13116
C         31.89577        46.68392         1.89234
C         31.77357        48.13293         1.51130
C         34.37154        21.04453        -0.18033
C         35.55985        23.25545        -0.14858
C         34.37481        22.45956        -0.13684
C         35.52326        24.65971        -0.12470
C         34.24505        25.33447        -0.13000
C         35.41920        27.54439        -0.36286
C         34.19138        26.77199        -0.34355
C         35.38682        28.93341        -0.45349
C         34.18064        29.62941        -0.87819
C         35.32978        31.81386        -0.77828
C         34.06549        31.09743        -0.79143
C         35.32860        33.13832        -1.25514
C         34.07484        33.94474        -1.51798
C         35.36583        36.20022        -0.73273
C         34.12375        35.30161        -0.72870
C         35.20139        37.42154         0.03338
C         34.03259        38.16194        -0.03976
C         35.86572        40.65024         0.35134
C         33.93308        39.49588         0.48468
C         35.43019        41.98265         0.07940
C         34.15692        42.50424         0.32031
C         34.02025        43.99074         0.04588
C         36.71687        25.46525        -0.10998
C         37.89171        27.65520        -0.11300
C         36.68556        26.85354        -0.15933
C         37.87044        29.03341        -0.09655
C         36.54825        29.75760         0.05565
C         37.77955        31.85694        -0.62123
C         36.55446        31.16251        -0.50393
C         37.79150        33.17041        -1.14424
C         36.56825        33.69044        -1.56262
C         37.94704        36.38498        -0.95604
C         36.59376        35.89077        -1.26673
C         38.13305        37.83099        -0.74294
C         37.19905        38.59998        -0.08361
C         36.99678        40.02137        -0.16457
C         39.07114        29.83185        -0.09690
C         40.23504        32.02646        -0.34268
C         39.04018        31.19492        -0.31274
C         40.24194        33.30714        -0.77796
C         39.04415        33.99943        -1.38786
C         38.99202        35.48895        -0.97407
O         11.91460        26.09164         2.60862
O         27.21759        12.82239         1.18170
O         31.66679        26.07803         1.25280
O          8.38702        35.87552        -0.00078
O          8.42327        31.51096         1.39153
O         15.39221        29.13330        -0.36249
O         18.51081        44.51111         2.33314
O         33.56328        29.11634        -2.10651
O         23.91604        46.14373        -0.48778
O         25.94076        28.13357         2.98216
O         19.12253        51.91337         0.82077
O         17.66595        27.30932         3.05631
O         30.35292        24.12839        -1.53993
O         27.19836        34.44439         1.99392
O         22.66323        33.78998         3.14662
O         26.58172        17.48092        -1.51142
O         24.13879        50.55970        -1.16979
O         27.92192        39.79500        -0.78243
O         12.00804        42.42679         0.51802
O         14.55306        44.67631         1.31369
O         28.15551        29.34711         2.25725
O         23.15253        54.27386         1.14124
O         28.57971        48.80404         3.11962
O         26.66405        22.37790         2.53804
O         13.24961        27.85145        -0.43610
O         20.01169        35.35087        -0.19286
O         32.11184        35.80605        -2.22880
O         28.66577        46.18323         3.36092
O         30.90939        40.61529        -1.23785
O         18.06357        32.59871         3.27624
O         19.84530        55.34255        -0.61772
O         27.67743        44.26140         0.25948
O         26.06372        37.66211        -0.76122
O         29.66426        21.00736        -1.53712
O         13.47808        20.19811         1.14682
O         30.14341        27.91822        -1.64254
O         21.22908        39.90119         2.53520
O         26.03145        21.04462        -0.73805
O         19.89141        20.60233         2.95279
O         21.43142        29.08158         3.44385
O         20.16262        22.60268        -0.12183
O         25.61842        41.48169        -0.52773
O         25.03818        14.01455         1.52777
O         29.96191        16.35988        -2.02011
O         36.61464        34.90831        -2.25969
O         14.90137        40.26116         2.19082
O         23.38710        11.53225        -2.40746
O         22.20962        17.14032         2.49695
O         32.29668        38.26437        -1.91728
O         20.89261        49.40126        -1.42498
O         16.38870        22.36906         2.94516
O         16.26416        24.90222         3.22357
O         17.95715        29.47604         0.14036
O         35.03325        39.93926         1.23961
O         36.29478        37.88921         0.75653
O         23.66749        23.06023         3.57560
H         23.47789        22.14498         3.89832
O         22.41397        20.55869         3.45842
H         21.57080        20.66427         3.95867
O         19.16032        16.86956        -1.92693
H         18.61769        16.59633        -2.69685
O         27.51039        33.09826        -1.41631
H         28.21609        32.64600        -1.92886
O         19.54102        26.59000        -0.00550
H         20.29997        26.00972        -0.28181
O         30.94119        23.68082         1.93529
H         30.07902        23.93324         2.32546
O         34.01823        34.15935        -2.92968
H         33.21709        34.70518        -3.12470
O         25.73186        55.18865         1.81240
H         24.82460        54.97272         2.12760
O         32.28132        46.66437         3.31970
H         32.40626        45.72643         3.57792
O         34.01372        34.88272         0.66812
H         34.37297        35.58794         1.24808
O         13.59252        35.93227        -1.12907
H         13.69443        34.99120        -1.38837
O         26.21828        46.93268         3.33655
H         26.98001        47.29884         3.84680
O         15.30729        36.08144         3.04451
H         15.33355        35.16001         3.38206
O         24.42919         9.41646         0.33109
H         25.20367         8.86581         0.57380
O         24.94389        55.39857        -2.73827
H         25.76317        54.86347        -2.69031
O         23.28459        27.55653        -0.08398
H         22.90862        26.72007        -0.44819
O         31.28709        30.93142        -2.53970
H         31.97223        30.32931        -2.91411
O         19.23429        38.08127        -0.81275
H         19.39446        37.13531        -1.05108
O         36.33601        29.91190         1.50437
H         36.43355        29.02518         1.91243
O         20.40589        13.95311         1.56809
H         19.64727        14.48960         1.90532
O         18.85567        16.13723         1.63889
H         19.25661        16.57884         2.41841
O         29.31428        43.57519         3.45854
H         29.26005        44.48032         3.85718
O         23.00584        36.75208        -0.51694
H         23.23511        37.42746        -1.18929
O         23.24116        36.65950         3.11935
H         23.23164        35.88238         3.72077
O         25.85177        10.82748        -2.79193
H         25.01258        11.29117        -3.03886
O         15.94161        41.38219        -1.17169
H         16.08191        42.21849        -1.66267
O         14.80415        50.78341        -1.52192
H         14.70392        50.86816        -0.55165
O         18.87269        19.58973        -1.01765
H         19.15986        18.84186        -1.59540
O         10.28263        23.91192         2.55997
H         10.49630        24.62327         3.20530
O         26.40781        42.20392         3.07221
H         27.19995        42.46370         3.59435
O         21.09229        24.77128         3.56589
H         20.33989        24.43710         4.09711
O         11.36646        38.29379         1.91840
H         10.55063        38.83772         1.89764
O         26.19437        32.17267         2.94396
H         26.51582        31.36636         3.40041
O         17.89060        23.48210        -0.10706
H         18.74108        23.30161        -0.62246
O         16.41771        30.56945         3.29776
H         16.69577        31.30115         3.89701
O         21.91984        17.79594        -0.83267
H         22.81266        18.01535        -1.16881
O         32.10849        21.56455        -2.02146
H         31.24230        21.93032        -2.32050
O         33.73848        44.16356        -1.35903
H         32.91321        43.67668        -1.56618
O         29.90040        38.20558         1.86702
H         29.85536        37.29300         2.22492
O         23.62317        57.97651        -0.50291
H         22.90142        58.63267        -0.59575
O         39.27160        34.03359        -2.82874
H         38.45787        34.41152        -3.23233
O         20.47370        46.46999         2.61656
H         19.71077        45.94222         2.95916
O         21.71875        24.92499        -0.03053
H         21.22248        24.03513        -0.11363
O         24.98100        32.78952        -0.47225
H         25.71076        32.84578        -1.13478
O         17.87208        19.36505         2.45966
H         17.97784        19.95385         3.23964
H          5.74691        30.77112        -2.25765
H          6.09735        33.07852        -3.00297
H          7.44937        26.85460         0.02471
H          6.50018        28.87941        -0.82756
H          7.27758        35.07098        -3.07229
H          8.86650        37.38787        -2.97722
H         10.10557        22.84496        -0.25120
H          8.57422        24.73881         0.60156
H          9.45121        39.65369        -2.28401
H         10.54425        41.62963        -2.40762
H         13.05037        18.94728        -1.93847
H         11.62995        21.36912        -1.41326
H         11.81364        44.07961        -2.41016
H         12.73387        46.28805        -1.92689
H         15.16763        14.60943        -2.02641
H         13.97921        16.74293        -1.74778
H         13.92309        48.40777        -1.93483
H         16.10676        50.02018        -2.91010
H         17.39074        10.21015        -2.31887
H         16.25878        12.43072        -2.14247
H         16.44011        52.66858        -2.12139
H         17.78240        54.27179        -2.99923
H         19.81792         5.92535        -3.03850
H         18.58735         8.03607        -2.60358
H         19.62398        56.04875        -3.91785
H         20.81535        57.98998        -4.40736
H         23.20978         2.62978        -3.78037
H         21.05873         3.86321        -3.58302
H         24.48054        60.82770        -5.57559
H         22.25562        59.71547        -5.40553
H         25.36290         3.72404        -3.19141
H         26.61290         5.70062        -2.37876
H         27.22051        58.72931        -2.21689
H         26.35289        60.13708        -4.08274
H         27.84290         7.65577        -1.44258
H         29.16563         9.75109        -1.03840
H         29.30167        54.91464         0.00581
H         28.24916        56.86270        -0.93016
H         30.39009        11.92534        -0.81725
H         31.61877        14.01659        -0.51098
H         31.54572        50.78501         1.21666
H         30.38952        52.90970         0.86873
H         32.82295        16.28044        -0.30095
H         34.00554        18.33838        -0.25647
H         33.88724        46.55366         0.86611
H         32.68950        48.65204         1.18901
H         35.32244        20.49590        -0.09462
H         36.53540        22.75009        -0.21721
H         36.17839        42.67437        -0.34049
H         34.99178        44.50914         0.24028
H         37.68927        24.95408        -0.03789
H         38.86016        27.13036        -0.12027
H         38.98265        38.31586        -1.24641
H         37.66139        40.59747        -0.82402
H         40.04030        29.32090         0.01604
H         41.17350        31.57530         0.01633
H         41.18967        33.86807        -0.77250
H         39.98785        35.90910        -0.75050
