         480
 CSIRO Nanostructure Databank - Neutral Graphene Oxide Data Set
C         37.67072        49.64945         1.92910
C         36.53887        50.35673         2.14600
C         37.62718        52.50483         1.74108
C         36.50173        51.79777         1.98611
C         40.23084        48.10269         1.37720
C         40.22978        49.58891         1.31812
C         38.91162        50.32987         1.49077
C         40.17030        52.56607         1.18119
C         38.94388        51.83209         1.65163
C         40.12233        53.96048         0.66316
C         42.65235        47.72424         1.65446
C         41.30470        47.27520         1.35669
C         42.63740        49.98034         1.96849
C         41.46987        50.41798         1.39222
C         42.60889        52.65668         0.89272
C         41.39100        51.77451         0.69556
C         42.56952        53.98738         0.54064
C         41.25780        54.58767         0.28459
C         44.87752        46.04706        -0.74643
C         43.74654        46.45395        -0.14265
C         45.11985        47.86972         1.36027
C         43.81917        47.28930         1.05132
C         45.13184        50.05065         1.90810
C         43.89392        50.67835         1.83014
C         45.09973        52.87941         1.42669
C         43.81914        52.10908         1.49577
C         45.06982        54.17349         0.71296
C         43.80853        54.76442         0.43292
C         44.98556        56.78955        -0.24687
C         43.80479        56.09092        -0.05820
C         47.42518        44.68273        -1.56572
C         47.40788        45.89383        -0.83909
C         46.19638        46.26496        -0.05101
C         47.49855        48.43907         0.69405
C         46.27223        47.62546         0.63980
C         47.51354        49.86476         1.07911
C         46.36910        50.62151         1.45791
C         47.56100        52.81169         0.98863
C         46.41548        52.14004         1.67919
C         47.55469        54.14250         0.63389
C         46.28352        54.85175         0.44547
C         47.48503        56.93373        -0.22551
C         46.24632        56.19272        -0.01439
C         47.51830        58.29344        -0.46651
C         49.90690        44.74026        -1.82066
C         48.58088        44.07046        -1.99588
C         49.91287        45.74626        -0.66634
C         48.65616        46.45393        -0.30703
C         49.93170        48.58363         0.08287
C         48.68849        47.85488         0.20463
C         49.92727        49.98153         0.42314
C         48.77364        50.58269         0.91246
C         50.08396        52.82456         1.11855
C         48.80805        52.05705         1.17636
C         50.03617        54.22433         0.62309
C         48.81009        54.82379         0.36156
C         50.05677        57.02621        -0.13185
C         48.75779        56.19607        -0.18042
C         49.94397        58.49113        -0.14093
C         48.72351        59.05797        -0.42023
C         52.28890        41.70588        -1.86906
C         51.10397        42.43079        -1.92920
C         52.35386        44.46268        -1.55858
C         51.11786        43.82562        -1.74486
C         52.40583        45.87389        -1.09797
C         51.19041        46.51403        -0.53896
C         52.40012        48.67811        -0.43756
C         51.14028        47.97924        -0.35802
C         52.45537        50.04816        -0.08700
C         51.15369        50.81810         0.05637
C         52.56616        52.82063         0.61044
C         51.35968        52.00261         1.00345
C         52.53129        54.26618         0.65863
C         51.28567        54.94724         0.51616
C         52.47552        57.09183         0.46345
C         51.28407        56.35723         0.33957
C         52.45181        58.56558         0.52678
C         51.14160        59.30039         0.21942
C         52.46992        61.34485        -0.14224
C         51.28496        60.68573        -0.24116
C         54.77080        40.23293        -1.27647
C         54.77355        41.59727        -1.56659
C         53.54696        42.34268        -1.71116
C         54.82815        44.50963        -1.54108
C         53.57401        43.76158        -1.60482
C         54.82346        45.89418        -1.52074
C         53.55118        46.70934        -1.58360
C         54.82895        48.74098        -0.89661
C         53.61878        48.04399        -0.87180
C         54.90258        50.09419        -0.45387
C         53.68880        50.72937        -0.03111
C         55.04638        52.78394         0.59139
C         53.72202        52.13929         0.31513
C         55.00774        54.29207         0.57252
C         53.74612        54.99180         0.61889
C         54.93318        57.17214         0.63315
C         53.71978        56.42029         0.56721
C         54.95241        58.58155         0.55100
C         53.72300        59.30252         0.41640
C         54.95221        61.42753         0.23110
C         53.71044        60.69632         0.22687
C         54.97845        62.84811         0.15517
C         57.20741        40.16949        -0.94385
C         55.94590        39.52206        -1.01949
C         57.28238        41.57358        -1.18944
C         56.09444        42.28764        -1.80107
C         57.28901        44.43529        -1.46726
C         56.08876        43.78143        -1.54509
C         57.35823        45.89380        -1.67959
C         56.05517        46.64920        -1.75090
C         57.34496        48.77825        -1.27410
C         56.00993        48.16901        -1.66307
C         57.33868        50.14448        -0.97773
C         56.14300        50.83251        -0.57424
C         57.38760        52.95975        -0.20490
C         56.21408        52.20232        -0.16207
C         57.45608        54.30994         0.31515
C         56.20111        54.97707         0.63756
C         57.46523        57.18670         1.02904
C         56.17190        56.43044         0.90847
C         57.43772        58.62763         0.68007
C         56.20734        59.30523         0.53171
C         57.42575        61.44830         0.22337
C         56.19745        60.72998         0.33334
C         57.42491        62.88829         0.07114
C         56.15994        63.55156         0.10420
C         59.58244        37.33680        -0.27561
C         58.41485        38.02811        -0.47165
C         59.65829        40.13395        -0.60790
C         58.41464        39.44096        -0.66678
C         59.67354        41.54963        -0.69547
C         58.49495        42.25722        -1.03473
C         59.77076        44.47967        -1.06091
C         58.59126        43.67778        -1.55339
C         59.80437        45.87298        -1.19253
C         58.60578        46.63317        -1.41704
C         59.85436        48.73530        -1.20394
C         58.58737        48.04111        -1.33445
C         59.88644        50.17136        -1.13664
C         58.60110        50.89649        -1.13567
C         59.90073        53.03181        -0.53000
C         58.61008        52.38221        -0.78581
C         59.90281        54.38361        -0.06631
C         58.66405        55.01273         0.33546
C         59.94277        57.18745         0.52743
C         58.76925        56.37717         1.00754
C         59.90355        58.59700         0.51652
C         58.66056        59.32840         0.51106
C         59.90337        61.41513         0.02606
C         58.66033        60.73233         0.26600
C         59.89235        62.86054        -0.30184
C         58.63216        63.60610        -0.10211
C         59.86897        65.72971        -0.22355
C         58.69729        65.03522        -0.28478
C         62.05520        35.88756         0.33192
C         62.04988        37.22891        -0.16887
C         60.85929        37.98195        -0.32364
C         62.13389        40.11513        -0.52030
C         60.89844        39.40956        -0.49591
C         62.19308        41.52558        -0.43807
C         60.92566        42.26350        -0.39004
C         62.28164        44.43769        -0.74624
C         60.97207        43.79272        -0.58344
C         62.28811        45.83585        -0.97154
C         61.06058        46.57252        -1.05237
C         62.34665        48.68385        -1.24353
C         61.05541        47.98744        -1.15232
C         62.37261        50.21041        -1.19170
C         61.07934        50.89872        -1.02853
C         62.35556        53.00715        -0.71457
C         61.10235        52.31718        -0.76290
C         62.32193        54.47485        -0.62776
C         61.11306        55.11365        -0.08642
C         62.38147        57.23353         0.25087
C         61.15015        56.50954         0.23612
C         62.36268        58.62513         0.40135
C         61.12073        59.31723         0.37555
C         62.39302        61.32614        -0.30587
C         61.10097        60.72130         0.14792
C         62.44291        62.82395        -0.25821
C         61.19411        63.62122        -0.40692
C         62.39493        65.92934         0.22205
C         61.13506        65.03895         0.21641
C         62.48920        67.05067         1.07015
C         64.49153        35.65167        -0.07511
C         63.18750        35.12930         0.36357
C         64.59445        37.12035        -0.25944
C         63.33313        37.82773        -0.54579
C         64.67088        40.03364        -0.43336
C         63.38594        39.36571        -0.68367
C         64.67400        41.48483        -0.40783
C         63.43961        42.22431        -0.43704
C         64.74896        44.30843        -0.61868
C         63.48451        43.66078        -0.57751
C         64.80680        45.73003        -1.12201
C         63.54687        46.55224        -0.92057
C         64.75937        48.67871        -0.39608
C         63.57278        47.92472        -0.93846
C         64.82741        50.17478        -0.62885
C         63.62049        50.90744        -0.80812
C         64.83457        53.05708        -0.48380
C         63.59577        52.32564        -0.71508
C         64.87131        54.42547        -0.46792
C         63.64848        55.23795        -0.60974
C         64.83917        57.25280         0.24039
C         63.66491        56.59560        -0.00168
C         64.81287        58.56585         1.01454
C         63.61275        59.36336         0.54098
C         64.85344        61.51733         0.47106
C         63.62962        60.69911         0.28988
C         64.92986        62.87055        -0.15933
C         63.64425        63.35968        -0.62023
C         64.88283        65.96898         0.04107
C         63.61403        65.53845        -0.35509
C         64.93226        67.17004         0.78609
C         63.71023        67.70122         1.26599
C         66.78237        33.12883         1.64234
C         65.71694        33.58183         0.93737
C         67.05911        35.60282         0.22151
C         65.76595        34.84445         0.17900
C         67.06738        37.09225        -0.00981
C         65.78557        37.81784        -0.21331
C         67.13760        39.93206        -0.23265
C         65.83226        39.27167        -0.26931
C         67.15903        41.38172        -0.56403
C         65.90940        42.16316        -0.45232
C         67.23222        44.28869        -0.32914
C         65.95690        43.58560        -0.52373
C         67.23346        45.71542        -0.23704
C         66.09398        46.47503        -0.75876
C         67.25656        48.70883        -0.14272
C         66.07723        47.97996        -0.61403
C         67.26623        50.10761        -0.12205
C         66.03031        50.82609        -0.33804
C         67.36429        52.94448        -0.13644
C         66.02473        52.27965         0.03272
C         67.39193        54.42841        -0.39039
C         66.09986        55.13752         0.06471
C         67.39757        57.38749        -0.00803
C         66.09783        56.63730        -0.35186
C         67.29355        58.67036         0.77051
C         66.11757        59.33215         0.89681
C         67.37211        61.49018         0.36286
C         66.13399        60.80976         0.82622
C         67.33943        63.01491         0.47885
C         66.05528        63.65182        -0.06511
C         67.38433        65.82747         0.09465
C         66.11256        65.17192        -0.41176
C         67.40286        67.20351         0.46440
C         66.20718        67.87165         0.88371
C         67.48157        69.91892         1.23481
C         66.28425        69.21156         1.29345
C         69.04518        32.20806         3.30735
C         69.20127        33.26028         2.38288
C         68.05102        33.82789         1.67342
C         69.45173        35.72355         0.93961
C         68.18896        35.02182         0.98384
C         69.49711        37.08088         0.67354
C         68.20177        37.86890         0.63678
C         69.65912        39.87409        -0.24578
C         68.30095        39.26399         0.05913
C         69.68975        41.37570        -0.01919
C         68.47395        42.13016        -0.37997
C         69.62572        44.19417         0.45901
C         68.40236        43.55974        -0.07167
C         69.64672        45.70632         0.60944
C         68.36160        46.43436         0.34988
C         69.71879        48.65441         0.22207
C         68.43139        47.96652         0.28029
C         69.73151        50.03600         0.08187
C         68.51778        50.79518         0.04765
C         69.84374        52.93968         0.08006
C         68.54555        52.24224        -0.01204
C         69.88158        54.34933         0.21128
C         68.59400        55.06730         0.27474
C         69.88071        57.25945         0.37607
C         68.58987        56.54982         0.40694
C         69.82770        58.66426         0.25606
C         68.46333        59.27066         0.03286
C         69.70335        61.44146        -0.57682
C         68.43669        60.77076        -0.09029
C         69.69450        62.95077        -0.40018
C         68.58250        63.66942        -0.08176
C         69.82806        65.83399        -0.04579
C         68.60605        65.12597        -0.00166
C         69.85026        67.24864         0.08653
C         68.64193        67.92244         0.46049
C         69.91768        70.04824         0.65812
C         68.67491        69.30740         0.79181
C         69.98443        71.43001         0.95451
C         71.43499        32.07758         3.61333
C         70.15018        31.62867         3.92578
C         71.60418        33.12946         2.71111
C         70.50129        33.75317         2.11138
C         71.89492        35.73808         1.41474
C         70.69374        34.89383         1.12964
C         71.91225        37.06721         1.20024
C         70.74763        37.80381         0.72870
C         72.03772        39.90071         0.57330
C         70.81972        39.15844         0.41476
C         72.07780        41.25995         0.46947
C         70.87604        42.03254         0.24340
C         72.07407        44.21807         0.51007
C         70.91519        43.48868         0.36641
C         72.08305        45.65037         0.51929
C         70.93806        46.40367         0.49699
C         72.09506        48.65291         0.82874
C         71.01724        47.87179         0.10175
C         72.11874        49.98839         0.73838
C         71.08170        50.71857        -0.09114
C         72.26043        52.92652         0.25690
C         71.05299        52.21724         0.13151
C         72.28700        54.31388         0.37228
C         71.09305        55.06400         0.36410
C         72.28262        57.30154         0.40947
C         71.09505        56.53965         0.41446
C         72.24045        58.68993         0.31712
C         71.02529        59.38914         0.18832
C         72.15815        61.48870        -0.68367
C         71.00289        60.89999         0.11062
C         72.14730        62.79620        -0.98160
C         71.02627        63.61214        -0.43852
C         72.27332        65.89873        -0.58942
C         71.09736        65.10439        -0.21329
C         72.24083        67.25744        -0.50972
C         71.06796        67.97406        -0.07959
C         72.28815        70.14822         0.03945
C         71.09713        69.38725         0.19084
C         72.32060        71.49946         0.33465
C         71.16135        72.14604         0.79847
O         51.57397        59.07766         1.60196
O         71.37042        64.14378         0.91132
O         65.12651        34.81813        -1.12233
O         66.40451        47.38401        -1.91463
O         63.35104        38.48581        -1.85254
O         60.49182        63.29259        -1.63498
O         67.47171        36.18241        -1.06543
O         68.06093        47.24859         1.54732
O         45.16547        48.75770         2.43627
O         58.48230        51.92207        -2.18015
O         67.91430        58.30305        -1.13084
O         44.28639        52.94764         2.65314
O         62.88914        55.13427        -1.83904
O         49.45796        52.56788         2.42196
O         67.96613        41.75894        -1.73603
O         56.74890        46.24898        -2.99270
O         71.03114        34.25370        -0.22467
O         39.36767        49.94200         0.14144
O         69.47823        44.84239         1.78083
O         42.68827        48.73555         2.63097
O         39.91595        52.37990         2.61253
O         65.36964        61.51143         1.86934
O         63.60115        64.55444        -1.34909
O         52.20905        45.90778         0.35593
O         49.57768        56.39680        -1.37425
O         56.70884        56.85117         2.24365
O         68.37945        55.70636         1.57764
O         49.30111        45.39153         0.59306
O         62.49201        49.49082        -2.47426
O         60.79503        43.17060         0.75938
O         64.81830        45.53018        -2.57117
H         65.24511        46.32890        -2.96310
O         65.97420        55.09911         1.49466
H         65.92818        54.15159         1.77559
O         69.89455        33.48071        -0.64369
H         69.38696        34.10959        -1.21530
O         60.95771        64.69808         1.63537
H         60.80653        65.52759         2.13540
O         41.28322        51.56734        -0.73455
H         40.51990        50.95504        -0.87585
O         71.46822        50.54486        -1.50120
H         70.81003        51.02348        -2.04917
O         65.80991        52.28015         1.52073
H         66.50373        51.70552         1.91371
O         51.69681        51.46361         2.30135
H         50.91542        51.63277         2.88687
O         62.44443        61.03348        -1.75400
H         61.72866        61.57133        -2.16841
O         64.58551        48.57696         1.06829
H         63.87067        49.19092         1.33972
O         71.34571        47.83415        -1.31840
H         71.50187        48.77150        -1.60852
O         59.11196        56.06776         2.39512
H         58.25772        56.06081         2.89258
O         53.33021        47.01665        -2.99037
H         54.08246        47.59366        -3.27903
O         58.83922        43.51313        -2.99541
H         58.00724        43.13683        -3.38250
O         50.11473        45.59436        -2.99982
H         50.24364        45.01430        -3.77953
O         65.95216        56.68562        -1.79514
H         66.37314        57.51998        -2.10634
O         67.78624        38.03329         2.03670
H         68.50022        38.51086         2.50956
O         64.60451        58.23676         2.41375
H         64.66812        59.06975         2.92694
O         46.22607        45.26653         1.04190
H         47.14567        45.24155         1.39083
O         56.32775        42.19776        -3.27162
H         56.30562        41.24544        -3.50936
O         46.72284        52.28975         3.09514
H         45.86775        52.48543         3.54889
O         50.86488        51.38468        -1.25667
H         50.87790        50.65767        -1.91430
O         55.75280        48.61384        -3.04331
H         56.37433        48.09840        -3.61123
O         67.56594        54.57734        -1.82553
H         66.93855        55.27200        -2.15320
O         55.31262        52.42256         2.00345
H         54.46831        52.51074         2.49747
O         69.85121        61.13440        -1.98686
H         69.00524        61.33238        -2.43921
O         67.38233        63.32884         1.89939
H         66.63934        62.83120         2.32063
O         69.84782        39.69068        -1.68920
H         69.19992        40.29218        -2.13267
O         66.19923        65.25718        -1.86322
H         65.31546        64.99458        -2.21289
O         71.04686        61.34924         1.47605
H         71.20062        62.32092         1.50387
H         37.66789        48.55643         2.04104
H         35.61643        49.84121         2.44786
H         37.59625        53.60211         1.68557
H         35.53631        52.31107         2.09518
H         39.25014        47.64839         1.16902
H         39.15272        54.47238         0.57658
H         41.13904        46.20532         1.15320
H         41.19731        55.60996        -0.11329
H         44.83873        45.46634        -1.67856
H         42.75910        46.24154        -0.57830
H         44.93026        57.82297        -0.61411
H         42.85601        56.59438        -0.28506
H         46.46348        44.19192        -1.77805
H         46.57992        58.85629        -0.56404
H         48.51811        43.14124        -2.58022
H         48.63042        60.15176        -0.48119
H         52.24201        40.61413        -1.98198
H         50.15426        41.89941        -2.08232
H         52.50754        62.39153        -0.47428
H         50.41864        61.19118        -0.69146
H         53.81556        39.69490        -1.19796
H         54.03502        63.41012         0.15296
H         55.86478        38.44819        -0.80971
H         56.12030        64.64788         0.05358
H         59.53450        36.24770        -0.14572
H         57.46856        37.47172        -0.47882
H         59.87524        66.81820        -0.38071
H         57.76852        65.58988        -0.48551
H         61.11273        35.43895         0.67487
H         61.58705        67.44861         1.55972
H         63.12173        34.07936         0.67899
H         63.72011        68.62080         1.86678
H         66.69688        32.16526         2.16257
H         64.80557        32.97148         0.87579
H         67.47607        70.97511         1.53398
H         65.37954        69.73329         1.63447
H         68.04201        31.83558         3.55584
H         69.09243        71.95921         1.31526
H         72.31319        31.60968         4.07910
H         70.00974        30.81096         4.64613
H         72.62492        33.45932         2.47523
H         72.81842        35.24240         1.74503
H         72.84594        37.61198         1.39243
H         72.96680        39.37443         0.82868
H         73.03243        41.77979         0.62030
H         73.05014        43.71420         0.49478
H         73.05963        46.14941         0.43795
H         72.85164        48.11799         1.42238
H         72.89442        50.56847         1.26003
H         73.21248        52.37762         0.25494
H         73.25871        54.81667         0.46977
H         73.26153        56.80631         0.46830
H         73.18682        59.24860         0.32713
H         72.97284        60.84125        -1.04048
H         72.96233        63.27136        -1.54749
H         73.20182        65.37923        -0.86479
H         73.15344        67.81721        -0.75547
H         73.20773        69.66533        -0.31643
H         73.25285        72.06729         0.20977
H         71.18789        73.21848         1.03543
