         732
 CSIRO Nanostructure Databank - Neutral Graphene Oxide Data Set
C         23.68144        25.15055        -4.18255
C         22.45936        25.69056        -3.79952
C         23.57065        27.66210        -2.90699
C         22.40281        26.91277        -3.12262
C         23.56917        28.89629        -2.10339
C         22.36183        29.34501        -1.44403
C         23.39624        31.48680        -0.88285
C         22.26147        30.62907        -0.95945
C         23.31683        32.84842        -0.52437
C         22.06046        33.51426        -0.34369
C         23.16719        35.62676         0.20110
C         21.98805        34.84521        -0.02258
C         23.09322        37.05058         0.46638
C         21.86168        37.73602         0.59732
C         22.97664        39.92127         0.64857
C         21.80390        39.11620         0.68228
C         22.92891        41.36112         0.56139
C         21.69588        41.99793         0.28629
C         22.88089        44.05716        -0.14136
C         21.68477        43.31469        -0.12899
C         22.84850        46.32593         0.13848
C         21.66657        47.02603         0.39272
C         22.97505        48.68867         1.53590
C         21.72851        48.18655         1.16657
C         26.29390        23.85971        -4.44711
C         26.18716        25.22982        -4.09450
C         24.88095        25.86859        -3.97196
C         25.99546        28.03363        -3.44314
C         24.79774        27.17037        -3.41715
C         25.82892        29.47311        -2.97024
C         24.71482        29.64851        -1.97558
C         25.90215        31.75508        -1.19378
C         24.73969        30.81149        -1.02005
C         25.80193        33.03621        -0.61388
C         24.51907        33.62215        -0.32249
C         25.65747        35.69878         0.53014
C         24.41836        34.97805         0.07558
C         25.55827        37.20486         0.45866
C         24.29381        37.83697         0.52827
C         25.43558        40.05297         0.65965
C         24.23450        39.26619         0.62204
C         25.38295        41.46822         0.66604
C         24.13977        42.14128         0.58912
C         25.28006        44.42415         0.58469
C         24.09669        43.57750         0.37746
C         25.28692        45.81557         0.62646
C         24.10778        46.69732         0.65399
C         25.45805        48.68152         1.34068
C         24.16663        47.99920         1.23930
C         25.53583        50.10006         1.46637
C         28.56400        23.76941        -3.56802
C         27.45996        23.16036        -4.22648
C         28.52906        25.18121        -3.32980
C         27.36113        25.89781        -3.65498
C         28.60416        28.05796        -3.13215
C         27.36513        27.36710        -3.55962
C         28.53126        29.52558        -2.95011
C         27.17095        30.13738        -2.62175
C         28.35279        31.93575        -1.28674
C         27.13932        31.29984        -1.69923
C         28.29646        33.19974        -0.70060
C         27.00386        33.82422        -0.48286
C         28.15300        35.90530         0.08915
C         26.92198        35.13500        -0.05373
C         28.04794        37.33595         0.43694
C         26.72126        37.98023         0.55354
C         27.92167        40.12383         0.95282
C         26.69570        39.38077         0.66977
C         27.87892        41.55014         1.01053
C         26.65512        42.27120         0.48857
C         27.82804        44.41777         1.11376
C         26.50740        43.65898         1.11587
C         27.82080        45.77752         1.06222
C         26.61973        46.54412         0.57178
C         27.86056        48.66524         0.93979
C         26.62467        47.97041         1.07037
C         27.86659        50.07642         0.78353
C         26.68460        50.78327         1.11025
C         30.89064        20.90458        -2.90627
C         29.84225        21.64307        -3.42131
C         30.58090        23.65106        -2.10003
C         29.67868        23.00776        -3.11654
C         30.78139        25.13274        -2.33426
C         29.70875        25.87069        -2.83168
C         31.02844        27.97272        -2.54355
C         29.75224        27.32768        -2.82573
C         31.08964        29.46822        -2.59963
C         29.79868        30.32986        -2.57559
C         30.89815        31.97020        -1.03109
C         29.64709        31.13059        -1.27739
C         30.78833        33.25411        -0.41389
C         29.50550        33.87755        -0.26128
C         30.57575        35.87575         0.72782
C         29.43165        35.18818         0.23717
C         30.44013        37.22669         1.35886
C         29.14557        37.97312         1.20508
C         30.22170        40.10706         2.01100
C         29.09081        39.43507         1.29385
C         30.24168        41.59513         1.76387
C         29.04593        42.27606         1.37164
C         30.32518        44.39422         1.49239
C         29.06969        43.70084         1.37231
C         30.34452        45.79977         1.27080
C         29.05888        46.54944         1.44921
C         30.28502        48.57034         0.57803
C         29.08574        47.94221         0.90855
C         30.24232        49.91948         0.08911
C         29.03731        50.67510         0.17950
C         29.94422        52.29087        -1.37513
C         28.94350        51.91842        -0.48792
C         33.03881        19.32339        -1.72378
C         33.02762        20.71284        -1.60525
C         31.90200        21.51653        -2.08897
C         32.85584        23.55848        -0.95640
C         31.83688        22.87262        -1.82315
C         33.05112        25.01255        -1.36244
C         32.00911        25.76851        -1.94169
C         33.49843        27.80247        -2.05576
C         32.13778        27.20403        -2.18281
C         33.60658        29.35881        -1.98376
C         32.33336        30.16508        -2.10499
C         33.32055        32.15478        -0.86934
C         32.16712        31.45130        -1.32939
C         33.24054        33.39700        -0.20892
C         31.95243        33.98396        -0.01404
C         33.01195        35.89860         1.24316
C         31.82646        35.26489         0.61480
C         32.92516        37.33106         1.81631
C         31.64668        38.05102         1.62786
C         32.71243        40.15775         2.32863
C         31.56939        39.40575         1.83614
C         32.46470        41.47134         2.64719
C         31.41087        42.28979         2.06730
C         32.81392        44.42822         1.71098
C         31.55609        43.70570         1.79497
C         32.80569        45.79431         1.18556
C         31.55402        46.48655         1.02149
C         32.73188        48.52329         0.19392
C         31.53763        47.85850         0.59290
C         32.70218        49.83824        -0.40758
C         31.38422        50.44423        -0.58571
C         33.05284        52.54326        -1.94456
C         31.11616        51.52322        -1.44917
C         33.09316        53.88597        -2.32287
C         35.32958        19.18442        -0.89021
C         34.16197        18.57181        -1.35750
C         35.33057        20.60534        -0.69170
C         34.15953        21.37046        -1.02310
C         35.32165        23.42593        -0.41830
C         34.14805        22.77432        -0.83707
C         35.39668        24.86137        -0.48013
C         34.30769        25.61738        -1.04064
C         35.88169        27.40445        -1.32833
C         34.56305        26.93661        -1.48315
C         36.01992        29.57929        -1.34283
C         34.74576        30.08541        -1.36670
C         35.87216        32.22727        -0.57200
C         34.63725        31.53155        -1.08631
C         35.69100        33.52819         0.09477
C         34.44684        34.10687         0.23919
C         35.47038        36.10209         1.36286
C         34.33885        35.39146         0.91514
C         35.38062        37.43563         1.97066
C         34.15494        38.09606         2.06411
C         35.31360        40.29210         2.80005
C         33.98223        39.43970         2.79835
C         35.35486        41.72846         2.38279
C         34.30983        42.57584         2.60480
C         35.32099        44.45971         1.50306
C         34.09845        43.83956         1.94174
C         35.31774        45.95738         1.38354
C         33.99250        46.51385         0.92086
C         35.19747        48.55463         0.14588
C         33.97512        47.84382         0.40637
C         35.16562        49.91278        -0.27238
C         33.92426        50.54507        -0.63114
C         35.17651        52.72402        -0.82976
C         34.02178        51.92717        -1.12065
C         35.17259        54.12115        -1.11775
C         34.12982        54.68950        -1.85925
C         37.67674        16.23451        -0.74803
C         36.58605        17.01005        -0.96550
C         37.64442        19.02903        -0.03842
C         36.52243        18.40595        -0.57947
C         37.67612        20.47534         0.13407
C         36.48007        21.25505        -0.17165
C         37.64644        23.36108         0.43579
C         36.48432        22.67281        -0.03999
C         37.71842        24.75554         0.43064
C         36.59881        25.50775        -0.08802
C         37.80237        27.69020         0.38062
C         36.79517        26.87337        -0.41598
C         38.08775        29.17635         0.06805
C         37.09402        30.06078        -0.49966
C         38.12843        32.02189         0.52469
C         37.05646        31.42111        -0.19228
C         38.08988        33.39522         0.84144
C         36.95567        34.28090         0.36432
C         37.88437        36.10338         1.75923
C         36.75700        35.50944         1.20596
C         37.82393        37.42739         2.31735
C         36.60606        38.10217         2.36079
C         37.90963        40.27644         2.50853
C         36.61248        39.55026         2.67980
C         37.85841        41.79568         2.31348
C         36.53403        42.21661         1.58169
C         37.72173        44.39922         0.99399
C         36.49853        43.73639         1.40946
C         37.70294        45.80150         0.59198
C         36.51087        46.52333         0.66789
C         37.67947        48.56284        -0.00671
C         36.46132        47.88203         0.26760
C         37.65539        49.97289        -0.21673
C         36.40760        50.64779        -0.33143
C         37.63467        52.78319        -0.38624
C         36.40743        52.06683        -0.45082
C         37.61434        54.25349        -0.32072
C         36.29680        54.96910        -0.66276
C         37.57976        57.05105        -0.94221
C         36.41107        56.37224        -1.07501
C         40.13262        14.55950         0.26905
C         40.10457        15.99581        -0.01812
C         38.79103        16.72392         0.07361
C         40.09007        18.86620         0.74957
C         38.78497        18.19818         0.41799
C         40.07353        20.35875         0.83206
C         38.82975        21.12036         0.53958
C         40.09717        23.29031         0.91143
C         38.78302        22.55576         1.00588
C         40.15095        24.66781         0.97953
C         38.95178        25.46777         0.74854
C         40.21166        27.55716         1.11865
C         39.03884        26.86589         0.67558
C         40.26809        28.95655         1.25258
C         39.16314        29.77028         0.75127
C         40.35961        31.82416         1.50876
C         39.24523        31.20507         0.90636
C         40.36841        33.21048         1.74589
C         39.19146        33.98770         1.47666
C         40.19773        35.95536         2.51155
C         39.11243        35.36751         1.86045
C         40.27268        37.39132         2.68037
C         39.07605        38.09648         2.61884
C         40.39328        40.13838         2.84993
C         39.07246        39.55055         2.69722
C         40.38982        42.17723         2.12478
C         39.03858        42.30637         1.46187
C         40.12142        44.27600         0.31484
C         38.91085        43.71470         0.95721
C         40.15355        45.73540         0.07841
C         38.92213        46.45166         0.20808
C         40.15944        48.56816        -0.09337
C         38.91948        47.85920         0.01493
C         40.12138        49.98337        -0.15083
C         38.89145        50.68803        -0.26890
C         40.12189        52.86828        -0.36299
C         38.87884        52.11810        -0.33357
C         40.10928        54.29801        -0.46866
C         38.86725        55.00744        -0.47554
C         40.06790        57.15034        -0.64170
C         38.83124        56.40009        -0.63324
C         40.06979        58.56246        -0.66958
C         42.56680        14.60955         0.47518
C         41.31960        13.90966         0.43220
C         42.63748        15.98556         0.44517
C         41.41537        16.76161         0.15718
C         42.60250        18.86121         0.74266
C         41.39214        18.18986         0.52740
C         42.63736        20.28923         0.93137
C         41.38566        21.05596         0.69798
C         42.58076        23.18940         1.39170
C         41.36376        22.54192         0.83368
C         42.61616        24.65969         1.41346
C         41.41918        25.33501         1.23295
C         42.67742        27.46210         1.86324
C         41.35443        26.75769         1.57166
C         42.68325        28.92107         1.79423
C         41.47458        29.60137         1.70302
C         42.77058        31.72452         2.22566
C         41.43213        31.01848         2.20220
C         42.77732        33.12025         2.81114
C         41.46927        33.82171         2.43882
C         43.11899        36.15558         3.13568
C         41.23987        35.08510         2.92419
C         42.94732        37.49539         2.79178
C         41.60193        38.06575         2.33207
C         42.81955        40.30421         2.26627
C         41.58309        39.54944         2.51580
C         42.75891        41.55431         1.38588
C         41.52754        42.45545         1.43992
C         42.69782        44.18350         0.01582
C         41.41171        43.51615         0.40501
C         42.62579        45.63833        -0.37215
C         41.36391        46.40338        -0.14992
C         42.64800        48.53334        -0.22518
C         41.40221        47.83793        -0.15396
C         42.68261        49.99312        -0.02035
C         41.35683        50.75370         0.01054
C         42.59583        52.89293        -0.40806
C         41.35903        52.19668        -0.28521
C         42.58005        54.31526        -0.53040
C         41.33387        55.01799        -0.53698
C         42.53382        57.19008        -0.63627
C         41.31258        56.45275        -0.60309
C         42.48655        58.59349        -0.67546
C         41.26496        59.26983        -0.68040
C         45.12364        16.06122         0.61513
C         43.88510        16.72602         0.61180
C         45.09848        18.86633         0.76571
C         43.86820        18.14730         0.70580
C         45.10266        20.29754         0.98893
C         43.85064        20.96838         1.08881
C         45.11864        23.15277         1.53698
C         43.84781        22.40203         1.47232
C         45.11710        24.56826         1.65503
C         43.88721        25.31469         1.63651
C         45.16070        27.43704         1.78354
C         43.92873        26.71713         1.73371
C         45.14019        28.89145         1.85681
C         43.94250        29.60708         1.85957
C         45.21517        31.77174         1.92404
C         43.94450        31.05868         1.98397
C         45.22675        33.22391         2.09647
C         44.07854        33.91245         2.50735
C         45.33225        36.07932         2.23310
C         44.18337        35.34700         2.66963
C         45.33329        37.50913         2.26906
C         44.12278        38.22109         2.47655
C         45.32623        40.45418         2.39197
C         44.04287        39.65728         2.29848
C         45.26349        41.77566         1.62518
C         44.05110        42.32609         1.27115
C         45.22845        44.40869         0.41320
C         44.00745        43.57433         0.46046
C         45.19811        45.73065        -0.02460
C         43.93283        46.39745        -0.42492
C         45.10418        48.59406        -0.44665
C         43.88661        47.87235        -0.34396
C         45.06645        50.02081        -0.60926
C         43.89575        50.73657        -0.39825
C         45.05626        52.90311        -0.63817
C         43.85223        52.18314        -0.47877
C         45.05351        54.34275        -0.64967
C         43.80999        55.04584        -0.61410
C         45.02687        57.15666        -0.66839
C         43.80161        56.47283        -0.64280
C         46.32277        16.77349         0.60100
C         47.58152        18.97649         0.37810
C         46.32848        18.16901         0.64485
C         47.58950        20.32018         1.08313
C         46.32011        21.01589         1.20412
C         47.55666        23.11347         1.87026
C         46.31004        22.40282         1.53932
C         47.58032        24.57776         1.82936
C         46.37381        25.29345         1.75254
C         47.62819        27.51022         2.14987
C         46.37084        26.72893         1.79357
C         47.57527        28.91400         1.60776
C         46.38999        29.61442         1.71650
C         47.71200        31.76573         1.77823
C         46.37846        31.06552         1.68183
C         47.64503        33.23963         1.46003
C         46.46012        33.93812         1.81622
C         47.71098        36.06497         1.57005
C         46.49169        35.35824         1.82936
C         47.74666        37.47343         1.72953
C         46.56511        38.23020         2.01223
C         47.83575        40.37512         2.05094
C         46.57470        39.63734         2.08368
C         47.77923        41.85875         1.67275
C         46.48762        42.48590         1.34800
C         47.68778        44.50452         0.56618
C         46.46761        43.77731         0.77658
C         47.65888        45.85222         0.14586
C         46.40683        46.50905        -0.08693
C         47.59483        48.64638        -0.48424
C         46.36169        47.89653        -0.39222
C         47.57541        50.03860        -0.73596
C         46.29189        50.72360        -1.12271
C         47.50160        52.88520        -0.93570
C         46.30789        52.20499        -0.82663
C         47.60341        54.36254        -0.64687
C         46.27079        55.07004        -0.70579
C         46.23798        56.46482        -0.68880
C         49.99313        18.76041         1.02765
C         48.87199        18.21862         0.54450
C         50.05950        20.15402         1.59397
C         48.78440        20.93096         1.36572
C         50.09417        23.10290         1.42216
C         48.85809        22.35280         1.77065
C         50.09664        24.49324         1.38930
C         48.90032        25.24895         1.85479
C         50.08847        27.44047         1.21550
C         48.94004        26.75664         1.87220
C         50.03139        28.80374         0.95656
C         48.72333        29.54852         0.89137
C         49.96234        31.69365         0.67032
C         48.84248        31.03954         1.10135
C         49.91578        33.18967         0.35681
C         48.80573        33.93194         1.06634
C         50.15544        36.03549         1.01233
C         48.87977        35.34067         1.17317
C         50.26280        37.37844         1.30868
C         49.06964        38.12019         1.76595
C         50.42607        40.38408         1.71653
C         49.13108        39.60467         1.96138
C         50.20695        41.66632         0.92671
C         48.99433        42.49888         1.15342
C         50.19341        44.56155         0.51699
C         48.93878        43.81048         0.72898
C         50.14658        45.94511         0.04215
C         48.88847        46.59550        -0.04743
C         50.12039        48.76084        -0.22810
C         48.83743        47.97682        -0.32813
C         50.04458        50.11823        -0.85427
C         48.79209        50.76464        -0.91327
C         49.91803        52.87550        -1.50684
C         48.74699        52.17772        -1.15742
C         49.78950        54.29207        -1.83032
C         48.68282        54.99047        -1.50281
C         52.50712        20.25813         0.99069
C         51.29921        20.93396         1.17743
C         52.49257        23.07062         0.85218
C         51.28800        22.35551         1.12757
C         52.48083        24.50322         0.75003
C         51.28417        25.22514         1.03468
C         52.41441        27.29544         0.36226
C         51.27459        26.65292         0.90384
C         52.32346        28.72076         0.00216
C         51.16440        29.52929         0.44355
C         52.32788        31.64737        -0.19569
C         51.12260        30.91167         0.26837
C         52.41584        33.14769        -0.09017
C         51.24880        33.91119         0.39954
C         52.62809        35.97296         0.49511
C         51.34357        35.26313         0.62759
C         52.73795        37.30980         0.81219
C         51.61234        38.05557         1.50370
C         52.72502        40.18541         0.72904
C         51.59255        39.55032         1.17707
C         52.73525        41.61274         0.41340
C         51.43864        42.32039         0.40581
C         52.65281        44.47384        -0.20588
C         51.48194        43.80921         0.38842
C         52.59325        45.85783        -0.49352
C         51.36268        46.59682        -0.33926
C         52.51960        48.65580        -1.04180
C         51.34555        47.97954        -0.61841
C         52.47941        50.08162        -1.29364
C         51.22783        50.79259        -1.23264
C         52.37969        52.83349        -1.94730
C         51.16720        52.17818        -1.59097
C         53.69439        20.95053         0.76352
C         54.95172        23.07943         0.49215
C         53.71313        22.35242         0.70287
C         54.91238        24.47752         0.23420
C         53.67164        25.19589         0.36270
C         54.85116        27.29632        -0.26538
C         53.63335        26.59864         0.13186
C         54.86328        28.69617        -0.42267
C         53.58608        29.42928        -0.40510
C         54.91430        31.61783        -0.33945
C         53.62220        30.89384        -0.14164
C         54.89913        33.08803        -0.46560
C         53.73969        33.82161        -0.13262
C         55.04255        35.89269        -0.19209
C         53.80464        35.22023         0.05433
C         55.15690        37.28861         0.04851
C         54.10834        37.94832         0.92927
C         55.07223        40.07698        -0.19986
C         54.09586        39.52680         0.83010
C         55.02700        41.53930        -0.49664
C         53.83920        42.30257        -0.06511
C         55.00867        44.38812        -0.85279
C         53.82716        43.72160        -0.37999
C         54.95732        45.76526        -1.15601
C         53.76481        46.51592        -0.97656
C         54.93805        48.63395        -1.57000
C         53.72538        47.93059        -1.23448
C         54.91804        50.05203        -1.70793
C         53.65883        50.76864        -1.64529
C         53.57860        52.15862        -1.95878
C         57.36984        23.10095         0.26359
C         56.19344        22.41844         0.53715
C         57.33961        24.45057        -0.11674
C         56.11218        25.15817        -0.13203
C         57.23823        27.25446        -0.89019
C         56.07591        26.57223        -0.44403
C         57.25162        28.66790        -0.98506
C         56.06243        29.41257        -0.71306
C         57.21449        31.53300        -1.28364
C         56.08280        30.84297        -0.79337
C         57.23603        32.99210        -1.29556
C         56.10356        33.74549        -0.82535
C         57.35182        35.84932        -1.12317
C         56.16047        35.16799        -0.73227
C         57.44547        37.27674        -0.93993
C         56.32985        37.97155        -0.34350
C         57.53658        40.11820        -0.62565
C         56.37170        39.39360        -0.32420
C         57.50383        41.54777        -0.72126
C         56.28879        42.26624        -0.74998
C         57.48980        44.39403        -1.17637
C         56.26223        43.66641        -0.93346
C         57.45915        45.76495        -1.49515
C         56.13904        46.41774        -1.83066
C         57.36795        48.61798        -1.90640
C         56.16147        47.92354        -1.70897
C         57.33607        50.03312        -1.97812
C         56.14316        50.72657        -1.91181
C         59.87993        24.63271        -0.17261
C         58.56624        25.08677        -0.65262
C         59.78915        27.19714        -1.52169
C         58.46464        26.48069        -1.21231
C         59.65072        28.69171        -1.64131
C         58.43712        29.37955        -1.41357
C         59.48760        31.43895        -2.33774
C         58.36378        30.78135        -1.65655
C         59.49130        32.97371        -2.39023
C         58.37924        33.69306        -1.73038
C         59.59556        35.81652        -2.22994
C         58.43599        35.10953        -1.65592
C         59.69244        37.33460        -2.02000
C         58.60864        37.99127        -1.27006
C         59.96556        40.05201        -1.18980
C         58.74178        39.39075        -0.97204
C         60.08721        41.49605        -0.91958
C         58.76493        42.29321        -0.72800
C         59.95111        44.38876        -1.36452
C         58.74979        43.71900        -1.08105
C         59.92718        45.80197        -1.63984
C         58.66941        46.48450        -1.69690
C         59.84002        48.55884        -2.23632
C         58.64213        47.89420        -1.97292
C         60.90836        25.55817         0.01431
C         60.86148        26.83484        -0.52286
C         60.79196        29.37681        -2.14023
C         60.73359        30.69393        -2.50026
C         60.77091        33.69260        -2.56488
C         60.81960        35.03164        -2.49179
C         60.98166        38.02635        -2.09974
C         61.09142        39.32117        -1.69747
C         61.22240        42.27449        -1.43073
C         61.16947        43.62583        -1.53793
C         61.11766        46.53395        -1.87955
C         61.06961        47.88105        -2.18939
O         31.98954        30.13477        -3.53516
O         36.70963        54.75001         0.72153
O         54.43155        31.19711         1.03088
O         40.86042        16.44446        -1.18750
O         42.11284        35.56537         3.90732
O         40.02517        19.56398         2.06749
O         59.25325        36.74818        -3.30614
O         49.30069        25.99619         3.08117
O         36.32062        28.46439        -2.11199
O         51.11170        44.39624         1.68477
O         48.28448        22.60520         3.09534
O         33.90950        28.61731        -3.19250
O         59.63447        41.92742         0.39743
O         42.08513        50.42052         1.25082
O         22.79674        45.28781        -0.80064
O         28.35331        37.01313        -0.96260
O         35.53513        32.29075        -2.00725
O         54.59936        40.51799        -1.50797
O         32.01193        51.78537        -2.49535
O         29.46040        37.27486         2.47510
O         38.41475        17.16830         1.40923
O         41.79412        26.99870         2.94768
O         52.64616        28.99747        -1.42874
O         27.82225        30.32987        -3.93372
O         59.08453        32.19677        -3.55346
O         33.32729        42.15101         3.50668
O         49.28992        38.74303         3.13941
O         52.13643        32.45455        -1.40527
O         43.00165        22.61450         2.67829
O         43.44535        43.34312        -0.91907
O         40.56399        43.34482        -0.79806
O         50.49815        41.63911        -0.51927
O         47.94093        41.43159         3.10824
O         41.51516        21.90707        -0.50361
O         43.28259        45.89349        -1.64925
O         58.31283        25.33520        -2.11945
O         26.69543        27.98276        -4.72467
O         36.06846        39.97845         4.03370
O         32.79975        36.14510         2.67650
O         40.44736        41.46038         3.31247
O         39.11038        41.40616         0.30798
H         39.68951        41.85317        -0.36893
O         25.00568        30.21283         0.32047
H         24.20943        29.68901         0.55701
O         51.89843        37.94981         2.94456
H         51.15474        38.42092         3.40475
O         47.49130        19.31141        -1.05119
H         48.31632        19.77909        -1.29985
O         49.52445        33.22371        -1.05952
H         50.31745        32.93011        -1.57535
O         29.54215        30.17737        -0.18505
H         29.33086        30.66785         0.63728
O         32.29381        23.60089         0.40336
H         31.33189        23.81273         0.30188
O         42.58872        40.91515         0.05988
H         42.76763        41.61903        -0.61937
O         26.21121        43.41325         2.52012
H         26.11678        44.27816         2.97098
O         54.52007        37.60190         2.29620
H         53.69209        37.56909         2.84228
O         41.67456        37.81901         0.87788
H         42.07395        38.61569         0.45858
O         50.85573        40.82947         3.03570
H         50.05319        41.14301         3.51378
O         26.84668        42.48385        -0.94458
H         26.93563        41.60555        -1.37122
O         35.46197        46.45523         2.76893
H         34.71591        46.08874         3.29049
O         38.51884        22.45983         2.45831
H         39.04617        21.71114         2.81469
O         45.40708        40.81035         3.80973
H         46.32014        41.16308         3.95918
O         28.93226        46.72094         2.92443
H         29.07434        45.83796         3.32998
O         29.90270        39.92191         3.43669
H         29.82276        38.94722         3.57929
O         25.32096        30.20385        -4.12570
H         26.00995        30.10704        -4.82438
O         26.87048        46.69524        -0.87974
H         26.78735        45.80539        -1.28660
O         48.05867        54.49042         0.74370
H         48.88624        53.97020         0.82723
O         50.28844        49.02984         1.22960
H         50.36700        48.15760         1.67407
O         25.76641        35.40352         1.98395
H         24.92037        35.67735         2.39933
O         29.94668        31.37448        -3.54501
H         30.10576        30.97326        -4.42446
O         47.52790        27.69164         3.59764
H         48.00037        26.92742         4.00867
O         60.28008        26.74511        -2.81747
H         59.78573        25.91287        -3.02160
O         37.38447        34.78755        -0.95768
H         37.19395        34.08878        -1.62162
O         54.61855        40.06343         2.07172
H         54.79493        39.28763         2.66383
O         46.21036        50.60632        -2.59679
H         47.01038        51.03902        -2.96525
O         55.94047        46.15641        -3.27491
H         56.68470        46.58184        -3.75206
O         37.89107        42.44638         3.59127
H         37.30650        41.94142         4.19887
O         48.34007        29.41749        -0.54319
H         49.01525        29.89736        -1.07169
O         36.46579        41.58030         0.28519
H         37.39052        41.47517        -0.05921
O         42.75564        32.92764         4.26800
H         42.61189        33.82116         4.66276
O         48.07074        31.71632         3.21102
H         47.27741        31.97191         3.72868
O         29.80876        23.58907        -0.80670
H         29.54031        22.65186        -0.68599
O         40.97653        30.90591         3.59762
H         41.51429        31.53555         4.13950
O         50.15276        19.99857         3.04575
H         49.85424        20.83705         3.46122
O         33.72187        39.05997         4.16371
H         34.58885        39.06902         4.63670
O         37.10681        27.81299         1.68270
H         37.77689        28.05929         2.35704
H         23.70079        24.15690        -4.64891
H         21.53299        25.12974        -3.98581
H         21.42841        27.28598        -2.78179
H         21.46509        28.71180        -1.45904
H         21.27736        30.99325        -0.63154
H         21.12697        32.95682        -0.49969
H         20.99864        35.31361         0.06613
H         20.91819        37.17389         0.61334
H         20.81589        39.58677         0.77266
H         20.75854        41.42784         0.28310
H         20.76015        43.78822        -0.48319
H         20.71903        46.67370        -0.03400
H         23.02133        49.65670         2.05129
H         20.81416        48.74574         1.40638
H         25.43322        23.33194        -4.87834
H         24.63743        50.67892         1.71905
H         27.49691        22.09476        -4.48805
H         26.67343        51.88198         1.08549
H         30.97406        19.84597        -3.18107
H         29.13687        21.14700        -4.10200
H         29.81964        53.15700        -2.03766
H         28.02204        52.51228        -0.42074
H         32.16519        18.78738        -2.11708
H         32.30384        54.29245        -2.96711
H         34.10662        17.48136        -1.46758
H         34.13570        55.75650        -2.11377
H         37.74892        15.23289        -1.19579
H         35.76379        16.59100        -1.56045
H         37.59343        58.11534        -1.21280
H         35.53159        56.89842        -1.47054
H         39.17847        14.02989         0.40243
H         39.12470        59.12043        -0.66441
H         43.47347        14.01298         0.64498
H         41.32752        12.82590         0.61582
H         43.41163        59.18368        -0.69728
H         41.25090        60.36836        -0.69594
H         45.16372        14.96554         0.55792
H         45.05461        58.25383        -0.66120
H         47.26329        16.21149         0.53164
H         47.17574        57.03683        -0.67761
H         50.89638        18.13629         1.09610
H         48.91148        17.19322         0.14708
H         50.60281        54.78935        -2.37842
H         48.61363        56.05595        -1.76631
H         52.54360        19.16257         1.04616
H         52.36751        53.89912        -2.21312
H         54.61824        20.37321         0.63136
H         54.48587        52.70766        -2.24329
H         58.32147        22.55414         0.28576
H         56.24903        21.35025         0.78194
H         58.26621        50.60253        -2.10109
H         56.16703        51.82111        -1.99210
H         59.97644        23.63277         0.27097
H         59.84615        49.63057        -2.47293
H         61.79583        25.25127         0.58853
H         61.69225        27.53404        -0.35280
H         61.71115        28.80138        -2.31465
H         61.59183        31.17026        -2.99127
H         61.67397        33.12624        -2.82975
H         61.76234        35.55700        -2.69681
H         61.84535        37.51862        -2.54877
H         62.06357        39.82406        -1.78784
H         62.14135        41.75368        -1.73370
H         62.06834        44.14771        -1.89230
H         62.09561        46.03969        -1.81922
H         61.99914        48.43319        -2.38450
