         404
 CSIRO Nanostructure Databank - Neutral Graphene Oxide Data Set
C          1.19903         2.12577         0.23022
C          1.12681         3.38556         0.78292
C          2.42266         1.43864         0.07091
C          2.33273         4.08726         1.21848
C          1.12962         6.40752         1.05285
C          1.14300         7.75542         0.91123
C          2.36706         5.65011         1.28081
C          2.37711         8.50339         0.90109
C          1.17910        10.68704         1.16125
C          1.19987        12.05281         1.28805
C          2.37475         9.93006         0.94230
C          2.41250        12.80500         1.15966
C          1.30176        14.97813         1.77535
C          1.31961        16.32639         1.88921
C          2.44578        14.22375         1.29894
C          2.45114        17.15967         1.35193
C          2.70229        18.42275         2.13854
C          3.64837         2.02228         0.44619
C          3.63784         3.36971         1.05965
C          4.87553         1.37793         0.23195
C          4.93352         4.18128         0.97142
C          3.64530         6.35029         1.00760
C          3.60749         7.78113         0.84351
C          4.86075         5.65696         0.86914
C          4.82775         8.50076         0.64998
C          3.60271        10.64949         0.81087
C          3.61431        12.07930         0.87818
C          4.81861         9.92864         0.61333
C          4.84046        12.78911         0.69280
C          3.66161        14.93741         1.05460
C          3.71747        16.35958         1.16247
C          4.85688        14.21168         0.76490
C          4.93118        17.05042         1.00342
C          3.90072        19.03372         2.11252
C          5.03995        18.46213         1.39457
C          6.12004         2.07055         0.28839
C          6.13298         3.48838         0.47168
C          7.33942         1.39491         0.02866
C          7.32035         4.21936         0.27354
C          6.07040         6.36092         0.55490
C          6.05546         7.78578         0.49436
C          7.30109         5.65643         0.33524
C          7.27547         8.50304         0.29296
C          6.04061        10.64577         0.41503
C          6.04749        12.07061         0.43504
C          7.25968         9.93148         0.24028
C          7.26528        12.78744         0.19984
C          6.07612        14.92367         0.53864
C          6.10730        16.35130         0.62509
C          7.25291        14.20717         0.22047
C          7.34977        17.07315         0.46820
C          6.19488        19.16026         1.20667
C          7.30000        18.58178         0.36270
C          8.55928         2.08771        -0.07513
C          8.54429         3.52944         0.01150
C          9.79572         1.39877        -0.24730
C          9.74177         4.26340        -0.14602
C          8.51778         6.37022         0.16448
C          8.50594         7.79608         0.18713
C          9.75724         5.67086        -0.03252
C          9.74377         8.51281         0.17941
C          8.47734        10.65285         0.05229
C          8.47519        12.06070        -0.01507
C          9.72546         9.93454         0.11217
C          9.73414        12.75508        -0.34965
C          8.46236        14.97456        -0.10505
C          8.52139        16.40414         0.23185
C          9.74061        14.24876        -0.40709
C          9.86529        17.05160         0.46102
C          8.65355        19.23714         0.48101
C          9.83996        18.55506         0.31361
C         11.01497         2.07927        -0.41213
C         10.97705         3.55401        -0.49636
C         12.25743         1.43088        -0.51487
C         12.30025         4.32144        -0.35756
C         11.01420         6.38245         0.05044
C         10.98614         7.81343         0.24619
C         12.24007         5.71294         0.08630
C         12.16705         8.51901         0.58041
C         10.93274        10.63737         0.32547
C         11.05858        12.04453        -0.10966
C         12.01361         9.89238         0.81893
C         12.32460        12.84557        -0.13635
C         11.02669        14.96125        -0.30834
C         11.05483        16.36274        -0.18602
C         12.23860        14.21306        -0.42260
C         12.27346        17.08522        -0.30656
C         11.10006        19.21466         0.18633
C         12.29835        18.51552        -0.08380
C         13.50545         2.12769        -0.48886
C         13.55037         3.54981        -0.27577
C         14.72364         1.42349        -0.56409
C         14.76818         4.22333        -0.13280
C         13.48932         6.36811         0.55018
C         13.50244         7.86786         0.71825
C         14.80450         5.63558         0.34114
C         14.85175         8.62046         0.47919
C         13.85908        10.93573         0.45055
C         13.62609        12.20025        -0.16478
C         14.88197        10.06235         0.09195
C         14.75583        12.79454        -0.75334
C         13.40574        14.95826        -0.94046
C         13.47099        16.42230        -0.72988
C         14.66856        14.18538        -1.23370
C         14.67823        17.11923        -0.84865
C         13.54630        19.18898        -0.16704
C         14.73763        18.51359        -0.49095
C         15.96764         2.09808        -0.52022
C         15.98621         3.52474        -0.32856
C         17.18970         1.39646        -0.62038
C         17.22327         4.23786        -0.34535
C         16.07083         6.40266         0.16518
C         16.07411         7.83622         0.12540
C         17.23713         5.65777        -0.11826
C         17.23350         8.54700        -0.27784
C         16.00857        10.66241        -0.55016
C         15.98191        12.06942        -0.82304
C         17.22937         9.93161        -0.66172
C         17.19948        12.74674        -1.12576
C         15.94041        14.94557        -1.39952
C         15.93452        16.44178        -1.24624
C         17.21830        14.25191        -0.96821
C         17.24257        17.09615        -0.97165
C         16.00611        19.16940        -0.42691
C         17.22597        18.49451        -0.59521
C         18.43827         2.07145        -0.67069
C         18.43631         3.52912        -0.57013
C         19.62676         1.35319        -0.85121
C         19.66770         4.22905        -0.65038
C         18.53528         6.33509        -0.10211
C         18.53293         7.87811        -0.21197
C         19.74726         5.62122        -0.51279
C         19.72855         8.51121        -0.78744
C         18.43592        10.61393        -1.02707
C         18.40570        12.04810        -1.21330
C         19.67329         9.89717        -1.11645
C         19.64613        12.79668        -1.34813
C         18.44204        14.95875        -1.57748
C         18.43646        16.40409        -1.10790
C         19.70756        14.18529        -1.28153
C         19.68970        17.03102        -0.77492
C         18.47461        19.15173        -0.41353
C         19.68547        18.45605        -0.47330
C         20.90630         2.04847        -1.20484
C         20.91693         3.45208        -0.64588
C         22.17054         1.32277        -0.84921
C         22.22602         4.20445        -0.68958
C         20.95695         6.34576        -0.78131
C         20.90276         7.75886        -0.97808
C         22.19780         5.64623        -0.94839
C         22.06229         8.41670        -1.61485
C         20.90279        10.57772        -1.42820
C         20.87848        12.04397        -1.57773
C         22.09999         9.88961        -1.58636
C         22.19024        12.79457        -1.45074
C         20.93906        14.89364        -1.03950
C         20.88057        16.29921        -0.72018
C         22.17014        14.19820        -1.01911
C         22.05391        16.93700        -0.00511
C         20.93150        19.13447        -0.32569
C         22.13746        18.43779        -0.23688
C         23.39319         2.00735        -0.82938
C         23.44392         3.44527        -0.96352
C         24.63869         1.32927        -0.69200
C         24.65172         4.14328        -1.14903
C         23.39443         6.26277        -1.36765
C         23.33767         7.65085        -1.86684
C         24.63893         5.56860        -1.36300
C         24.63321         8.39681        -2.20346
C         23.39014        10.54938        -1.64262
C         23.41620        11.98351        -1.22567
C         24.57278         9.86332        -1.78864
C         24.69360        12.75102        -1.11848
C         23.41955        14.84362        -0.73717
C         23.38753        16.21583        -0.20122
C         24.65584        14.22256        -0.97151
C         24.67868        16.99430        -0.25853
C         23.36943        19.12169        -0.19262
C         24.62454        18.47973        -0.22224
C         25.86264         2.01058        -0.78769
C         25.88825         3.42658        -1.09632
C         27.07550         1.31807        -0.52928
C         27.10791         4.12246        -1.29313
C         25.88510         6.27781        -1.54485
C         25.89523         7.68905        -1.73129
C         27.11050         5.52188        -1.50932
C         27.11860         8.44858        -1.73597
C         25.85340        10.60763        -1.91325
C         25.92270        12.09880        -1.65284
C         27.11119         9.85244        -1.84985
C         27.21929        12.79932        -1.44651
C         25.90518        14.94985        -1.00054
C         25.87918        16.33190        -0.79470
C         27.18340        14.24360        -1.20158
C         27.07775        17.16327        -0.92075
C         25.82900        19.18808        -0.18310
C         27.08241        18.53640        -0.35112
C         28.31992         1.95840        -0.63666
C         28.35706         3.32399        -1.21023
C         29.52102         1.31773        -0.29673
C         29.69770         4.06687        -1.12400
C         28.37588         6.26919        -1.66590
C         28.37596         7.73700        -1.58783
C         29.71130         5.54710        -1.34469
C         29.59908         8.39979        -1.49141
C         28.35958        10.63038        -1.97990
C         28.38473        12.10003        -1.68549
C         29.65518         9.84458        -1.77635
C         29.69948        12.74777        -1.43852
C         28.37917        14.94750        -1.12833
C         28.40675        16.42392        -1.04314
C         29.68007        14.24422        -1.09841
C         29.58124        17.10091        -0.46307
C         28.28670        19.16687        -0.05849
C         29.54011        18.47206        -0.05702
C         30.75479         2.02824        -0.15862
C         30.79037         3.41913        -0.41504
C         31.91780         1.39636         0.36112
C         31.90571         4.21323         0.11659
C         30.80400         6.36167        -0.80471
C         30.79143         7.72190        -1.03067
C         31.90892         5.72306        -0.04115
C         31.99139         8.52318        -0.65387
C         30.90622        10.59112        -1.54114
C         30.94761        11.94975        -1.70503
C         32.15997         9.83751        -1.34294
C         32.25167        12.55977        -1.83495
C         30.88913        15.11096        -0.98133
C         30.77983        16.37480        -0.37482
C         32.19563        14.67515        -1.33627
C         31.96815        16.97673         0.25144
C         30.73214        19.11852         0.35449
C         31.96751        18.43491         0.47510
C         33.15044         2.08413         0.52508
C         33.19029         3.53063         0.34329
C         34.27787         1.41069         1.00913
C         34.34696         4.27537         0.51009
C         33.20977         6.41326         0.07722
C         33.22980         7.87406        -0.10786
C         34.36499         5.72817         0.40924
C         34.54463         8.56847        -0.14743
C         33.46536        10.57358        -1.17315
C         33.43839        12.03222        -1.37612
C         34.63073         9.92997        -0.52312
C         34.68730        12.82541        -1.27130
C         33.37039        15.05923        -0.71792
C         33.29904        16.23579         0.16984
C         34.66089        14.37849        -0.95564
C         34.53411        17.01617         0.31809
C         33.18021        19.06611         0.76399
C         34.44835        18.39501         0.68794
C         35.58596         2.03983         1.01939
C         35.62959         3.58134         0.69991
C         36.70504         1.50413         1.77787
C         36.77642         4.34675         1.20962
C         35.62769         6.45375         0.57586
C         35.69727         7.86747         0.26575
C         36.76907         5.78790         1.03047
C         36.94718         8.57449         0.35072
C         35.85097        10.63847        -0.45301
C         35.93861        12.05535        -0.91518
C         37.01106         9.97689         0.03635
C         37.17623        12.84426        -0.50298
C         35.86001        14.99481        -0.33051
C         35.77538        16.36600         0.12576
C         37.07539        14.30582        -0.23487
C         36.97147        17.07733         0.43826
C         35.64534        19.11234         0.88128
C         36.90402        18.47411         0.77952
C         37.84367         2.26403         2.03270
C         37.86305         3.68779         1.75077
C         38.99526         1.67045         2.64769
C         38.96846         4.52044         2.34488
C         38.03492         6.49240         1.15210
C         38.11537         7.88256         0.76419
C         39.15419         5.82208         1.62109
C         39.36370         8.57716         0.90521
C         38.24201        10.70027         0.26039
C         38.29592        12.11026         0.12809
C         39.41135         9.99176         0.69479
C         39.47454        12.83508         0.45357
C         38.25203        14.98423         0.22189
C         38.21510        16.39620         0.45454
C         39.47490        14.27469         0.43903
C         39.41298        17.11656         0.74962
C         38.10334        19.18455         1.00471
C         39.35358        18.53223         0.97389
C         40.16194         2.39379         2.89065
C         40.23715         3.76713         2.63101
C         41.41923         4.54155         2.85865
C         40.53785         6.36769         1.39943
C         40.54696         7.87598         1.26710
C         41.53632         5.81193         2.38454
C         41.75509         8.57385         1.36089
C         40.64059        10.68952         0.88897
C         40.67013        12.13278         0.78720
C         41.80218         9.95447         1.19600
C         41.85080        12.86928         1.01751
C         40.67492        14.98612         0.72995
C         40.66313        16.43884         0.81896
C         41.85423        14.25445         0.98304
C         41.83243        17.19294         1.02950
C         40.56168        19.25016         1.19403
C         41.77640        18.58451         1.20074
O         13.72043        14.45890        -2.30006
O         11.64129         4.11344        -1.66861
O         22.35583         7.81633        -2.95162
O          4.48391         3.54853         2.22520
O         13.00882        10.58828         1.50124
O         33.11317         9.84407        -2.44201
O          8.91707        14.75125        -1.51905
O         32.47287        16.15882         1.37641
O         29.26670         3.37169        -2.34364
O         24.22218        16.36089         1.00341
O         29.74120        13.21219        -0.02572
O         29.16233        10.19848        -3.12582
O         21.61424        12.53130        -2.76226
O         27.78912        17.08753        -2.19963
O         25.78588        11.60447        -3.01954
O         14.32898         8.32564         1.81371
O         18.75939         7.19822         1.05781
O         31.46654         5.10805         1.22601
O         35.95960         2.60253        -0.30023
O         14.15945         5.70119         1.66938
O         15.93940        15.77766        -2.58553
O         10.44555        12.14457        -1.46588
O         24.07701        12.11787         0.07599
O         36.99362        12.34896        -1.87974
O         32.24927         8.58488         0.78315
O         21.63306         3.69629         0.58997
O         29.31605         5.84704        -2.70736
O         34.89029        13.83148        -2.28586
O         32.25136        13.81542        -2.43672
O          2.26310         4.81091         2.47767
O         10.10667        16.82045         1.90576
H         10.88921        17.35706         2.15674
O         24.76043         8.41570        -3.65097
H         23.84411         8.43213        -4.01540
O         18.37392        14.93499        -3.02130
H         17.53791        15.39223        -3.28902
O          6.88978        18.83489        -1.03328
H          7.54272        18.39453        -1.61858
O         20.90419         2.24518        -2.67919
H         20.87150         1.35810        -3.09583
O          2.02272        17.59706         0.01199
H          1.91747        16.79242        -0.53839
O         21.71433        16.78826         1.41012
H         22.57120        16.79983         1.89878
O         38.47578         4.89609         3.69925
H         38.32424         4.05964         4.18992
O         40.96864         5.84310         0.08280
H         40.37181         6.22593        -0.59535
O         17.25600        14.46830         0.47710
H         18.06423        14.03935         0.83084
H          0.27070         1.62509        -0.07915
H          0.14696         3.85440         0.94420
H          2.42308         0.43126        -0.36816
H          0.17024         5.87647         1.11740
H          0.18812         8.28792         0.80771
H          0.21760        10.16698         1.26638
H          0.25366        12.57815         1.47571
H          0.41103        14.42822         2.11179
H          0.43547        16.85417         2.27794
H          1.85369        18.87888         2.67056
H          4.87264         0.33477        -0.11819
H          4.05079        19.99239         2.63240
H          7.32900         0.30107        -0.08550
H          6.27650        20.20020         1.55813
H          9.79392         0.29868        -0.23034
H          8.67197        20.33923         0.46740
H         12.28006         0.33113        -0.54723
H         11.12709        20.31423         0.22872
H         14.70986         0.33016        -0.68515
H         13.58500        20.26550         0.05704
H         17.17097         0.30059        -0.71804
H         16.02659        20.23483        -0.15193
H         19.58513         0.25382        -0.89987
H         18.48192        20.22762        -0.18292
H         22.16297         0.22625        -0.75728
H         20.93869        20.23551        -0.31965
H         24.64231         0.24605        -0.50081
H         23.35219        20.22289        -0.20668
H         27.03232         0.26822        -0.20427
H         25.81224        20.27272         0.00162
H         29.48774         0.26531         0.02178
H         28.26693        20.20493         0.30596
H         31.88212         0.32004         0.58343
H         30.69847        20.19572         0.57606
H         34.17557         0.38390         1.38968
H         33.18335        20.14612         0.97492
H         36.62987         0.48421         2.18297
H         35.60314        20.18064         1.13887
H         38.97307         0.59224         2.86124
H         38.06026        20.26174         1.22330
H         41.05685         1.86597         3.25335
H         42.24481         4.08890         3.43098
H         42.44767         6.38477         2.60663
H         42.68832         8.03722         1.57751
H         42.76897        10.46109         1.30932
H         42.79125        12.35218         1.24758
H         42.79477        14.78031         1.19298
H         42.81388        16.70156         1.06138
H         40.51940        20.33675         1.35494
H         42.70840        19.14466         1.35984
