         618
 CSIRO Nanostructure Databank - Neutral Graphene Oxide Data Set
C         23.13416        70.00364         0.98850
C         22.65496        71.25826         0.62115
C         21.84453        72.19506         1.30978
C         22.97623        74.27394         0.45085
C         21.92246        73.57588         1.05239
C         25.50420        65.78122         0.22069
C         25.49720        67.20472         0.12421
C         24.35713        67.96383         0.51709
C         25.36109        70.08926        -0.24704
C         24.25950        69.36247         0.35411
C         25.41088        71.48999        -0.30730
C         24.24685        72.28641        -0.29120
C         25.44069        74.36487         0.05078
C         24.21113        73.68383         0.02813
C         27.83405        61.42510        -0.36789
C         27.83022        62.85499        -0.28802
C         26.64928        63.58719        -0.05454
C         27.86795        65.67977        -0.44323
C         26.64896        65.00574        -0.08689
C         27.79493        67.11454        -0.73029
C         26.61333        67.88266        -0.41231
C         27.90032        70.05603        -0.41541
C         26.58406        69.35105        -0.76871
C         27.92415        71.45053        -0.19572
C         26.69990        72.23927        -0.59813
C         27.84389        74.28734         0.31978
C         26.68501        73.66723        -0.07481
C         30.29655        57.09156        -0.54244
C         30.25935        58.47425        -0.60952
C         28.93869        59.20780        -0.77186
C         30.26216        61.39813        -0.55513
C         29.00545        60.71023        -0.54916
C         30.29275        62.81753        -0.47064
C         29.07842        63.55170        -0.42148
C         30.35305        65.70218        -0.53638
C         29.08744        64.98274        -0.50434
C         30.33637        67.09938        -0.41798
C         29.15898        67.89367        -0.69998
C         30.31265        70.02906        -0.08697
C         29.11527        69.34475        -0.38755
C         30.33083        71.40533         0.22563
C         29.11061        72.11447         0.16008
C         30.39021        74.25355         0.43897
C         29.09035        73.53078         0.67533
C         32.79597        52.78300        -0.56407
C         32.77070        54.19277        -0.60529
C         31.54201        54.92041        -0.57890
C         32.77587        57.01823        -0.63003
C         31.52774        56.31918        -0.55290
C         32.74934        58.48284        -0.29279
C         31.47195        59.23572        -0.58589
C         32.74533        61.36191        -0.40044
C         31.48781        60.63596        -0.57023
C         32.74453        62.80662        -0.37264
C         31.55807        63.53432        -0.44207
C         32.85602        65.66560        -0.41896
C         31.59792        64.97922        -0.48092
C         32.90233        67.14486        -0.50950
C         31.60024        67.85820        -0.36477
C         32.79765        69.94635         0.57763
C         31.53497        69.24917         0.16046
C         32.80054        71.42600         0.50514
C         31.60363        72.10464         0.42864
C         32.84430        74.27575         0.57371
C         31.59229        73.57709         0.44697
C         35.34044        48.49060        -0.08496
C         35.34062        49.99352        -0.02292
C         34.05241        50.66660        -0.38963
C         35.27108        52.79707        -0.59350
C         34.02054        52.05728        -0.53130
C         35.25326        54.18731        -0.67631
C         34.01510        54.91194        -0.68907
C         35.23918        57.04719        -1.24470
C         33.98857        56.33552        -0.75151
C         35.26143        58.55875        -0.96930
C         33.96808        59.25212        -0.71197
C         35.18876        61.30350         0.19886
C         33.93426        60.66345        -0.28641
C         35.30131        62.74161        -0.24721
C         34.03537        63.51664        -0.43358
C         35.31139        65.63346         0.06859
C         34.07217        64.97993        -0.27160
C         35.38336        67.07534         0.18967
C         34.22658        67.91346        -0.34514
C         35.34757        69.98610         0.52098
C         34.09661        69.13508         0.63289
C         35.31212        71.42965         0.84241
C         34.10643        72.14923         0.31746
C         35.29791        74.26432         0.88414
C         34.06881        73.60959         0.64277
C         37.77836        44.29954         0.59825
C         37.77352        45.72020         0.38014
C         36.55710        46.36534         0.12876
C         37.73191        48.40320        -0.73539
C         36.49682        47.76220        -0.19781
C         37.74354        49.90085        -0.98473
C         36.53676        50.68292        -0.63754
C         37.76200        52.79337        -0.94346
C         36.52790        52.06301        -0.70253
C         37.80308        54.17478        -0.87056
C         36.54467        54.91903        -0.63022
C         37.81561        57.13633        -1.20507
C         36.54240        56.39935        -0.80728
C         37.79410        58.53117        -0.60285
C         36.51613        59.22949        -0.50398
C         37.65964        61.23908         0.40041
C         36.45720        60.52981        -0.06422
C         37.68539        62.72207         0.39726
C         36.51915        63.45884         0.17513
C         37.68922        65.50084         0.87590
C         36.47617        64.87039         0.33079
C         37.71607        67.01871         1.09671
C         36.50949        67.73427         0.64476
C         37.71794        69.80373         1.54558
C         36.60810        69.22416         0.66579
C         37.73007        71.39051         1.63713
C         36.47603        72.08851         1.11389
C         37.75564        74.20199         1.09720
C         36.51582        73.55111         1.05041
C         40.20038        39.98613         0.22939
C         40.13407        41.34304         0.52984
C         38.91724        42.07452         0.50074
C         40.15340        44.01853         1.27104
C         38.89076        43.45146         0.82229
C         40.17851        46.11497         0.83207
C         39.00296        46.50868         0.22355
C         40.23744        48.43928        -0.70528
C         39.03403        47.76971        -0.48259
C         40.23636        49.83127        -1.11850
C         39.05142        50.56799        -1.11658
C         40.29137        52.80977        -1.27746
C         38.98884        52.04009        -1.29324
C         40.28989        54.23601        -0.90157
C         39.04753        54.92547        -0.90385
C         40.27639        57.03192        -0.69611
C         39.06734        56.34891        -0.85485
C         40.28320        58.54069        -0.77826
C         38.97705        59.15197        -0.30270
C         40.20026        61.30896         0.21224
C         38.97479        60.49369         0.30560
C         40.18367        62.67081         0.31160
C         38.94353        63.41526         0.48993
C         40.21450        65.54558         0.89513
C         38.95723        64.78760         0.71412
C         40.21436        67.02610         0.83075
C         39.02433        67.73496         1.00654
C         40.19075        69.89224         0.95725
C         39.02621        69.17429         1.10434
C         40.21486        71.35092         1.03018
C         38.99798        72.06346         1.15103
C         40.23951        74.17321         0.99291
C         39.00544        73.48980         1.08083
C         42.72036        35.73433        -0.09137
C         42.69842        37.15606        -0.03476
C         41.47166        37.86306         0.05816
C         42.68768        39.97343         0.20513
C         41.44622        39.25941         0.18641
C         42.64395        41.44118         0.33185
C         41.42263        41.99996         1.00810
C         42.63557        44.33350         1.18850
C         41.38641        43.51034         0.99167
C         42.62278        45.79863         0.80790
C         41.49110        46.51928         0.45131
C         42.80247        48.46728        -0.41136
C         41.54390        47.64808        -0.57689
C         42.87566        49.73163        -1.24405
C         41.54954        50.51428        -1.33868
C         42.77223        52.68912        -0.69064
C         41.56939        52.02174        -1.26944
C         42.75557        54.16543        -0.46901
C         41.49966        54.92301        -0.69052
C         42.75689        57.03237        -0.32775
C         41.50926        56.33087        -0.55819
C         42.70293        58.44493        -0.04729
C         41.51297        59.13760        -0.12841
C         42.74755        61.33026         0.35175
C         41.46198        60.54288         0.29901
C         42.71376        62.76177         0.08192
C         41.40292        63.47403        -0.06682
C         42.69708        65.61520         0.18945
C         41.49298        64.83994         0.56934
C         42.65701        67.04914         0.25818
C         41.44472        67.71005         0.54000
C         42.68553        69.94162         0.37357
C         41.39285        69.18135         0.47775
C         42.73203        71.28098         1.06703
C         41.44138        72.04943         0.94743
C         42.73437        74.15395         0.99573
C         41.47265        73.47444         0.97748
C         45.22741        32.97339         0.33066
C         44.07673        33.61759        -0.12322
C         45.09772        35.84030        -0.45684
C         43.93493        35.04449        -0.25961
C         45.17524        37.20531        -0.14706
C         43.93117        37.89486        -0.01126
C         45.17638        40.05518         0.07050
C         43.91872        39.31309         0.10397
C         45.18484        41.43065         0.26929
C         43.92836        42.19682         0.45758
C         45.34265        44.27707         1.12061
C         43.96142        43.57801         1.08046
C         45.24180        45.78194         0.87537
C         43.92726        46.51625         0.69667
C         45.26438        48.49871        -0.19751
C         43.93416        47.87053         0.05040
C         45.37182        49.88596        -0.78390
C         44.08595        50.61197        -0.91749
C         45.30390        52.79311        -0.81279
C         44.06163        51.96404        -0.78117
C         45.26332        54.23341        -0.43719
C         44.03949        54.90105        -0.39689
C         45.22533        57.01075        -0.02759
C         43.98991        56.32429        -0.26673
C         45.19826        58.50304        -0.18559
C         43.97067        59.12865         0.46895
C         45.17386        61.32871         0.04470
C         44.00032        60.61396         0.18441
C         45.15527        62.77119        -0.12174
C         43.88055        63.46626        -0.14859
C         45.03863        65.66511        -0.57086
C         43.82744        64.91924        -0.21710
C         45.06142        67.11053        -0.35589
C         43.89940        67.78207         0.01067
C         45.15478        69.92469         0.15378
C         43.94909        69.20420         0.21535
C         45.15834        71.35530         0.42631
C         43.98190        72.04738         0.72741
C         45.21925        74.16128         0.88292
C         43.97213        73.47727         0.87619
C         46.46677        33.55944         0.67443
C         47.72206        35.78791         0.72163
C         46.85568        34.83130         0.19312
C         47.66008        37.18787         0.37196
C         46.44280        37.88244         0.01722
C         47.66336        40.01066         0.01791
C         46.43597        39.31427        -0.00235
C         47.69613        41.44979        -0.27272
C         46.39915        42.20894        -0.02090
C         47.68897        44.31052         0.26410
C         46.47112        43.63933         0.31776
C         47.70722        45.76360         0.43607
C         46.51768        46.44983         0.53677
C         47.75786        48.65818         0.35807
C         46.47160        47.92134         0.47206
C         47.78106        50.03691        -0.17943
C         46.63979        50.65319        -0.61001
C         47.92681        52.92167        -0.72589
C         46.63645        52.11023        -0.89644
C         47.74706        54.27559        -0.06254
C         46.48576        54.92080        -0.09085
C         47.55922        57.03257         0.87936
C         46.40574        56.32535         0.20053
C         47.58087        58.52235         0.61570
C         46.46014        59.20488         0.24356
C         47.60217        61.39703         0.41172
C         46.44552        60.65302         0.19844
C         47.58939        62.83066         0.20764
C         46.35616        63.47377        -0.16504
C         47.60319        65.67793        -0.29516
C         46.37408        64.90423        -0.51413
C         47.60210        67.08691        -0.42664
C         46.32125        67.85004        -0.74935
C         47.57307        69.97909        -0.28075
C         46.36617        69.27175        -0.23329
C         47.58170        71.38724         0.00676
C         46.40736        72.06598         0.35277
C         47.68920        74.14046         0.82673
C         46.43694        73.48366         0.67501
C         48.82615        37.95318         0.60737
C         50.08813        40.07723         0.54451
C         48.87386        39.33603         0.36726
C         50.17831        41.44889         0.31681
C         49.03182        42.18199        -0.34521
C         50.16014        44.31350         0.24857
C         48.95567        43.63647         0.07734
C         50.19788        45.75365         0.34746
C         48.97375        46.47857         0.36665
C         50.23535        48.58700         0.29809
C         49.00974        47.88441         0.34807
C         50.24286        50.02066         0.22502
C         49.04241        50.74601        -0.04381
C         50.24561        52.84882         0.20266
C         49.06969        52.13665        -0.13911
C         50.16941        54.25532         0.42358
C         48.94195        54.94701         0.35515
C         50.05918        57.06007         0.98079
C         48.90984        56.36998         0.69189
C         50.07793        58.52817         1.22824
C         48.77542        59.28113         1.02591
C         50.02189        61.42502         0.90107
C         48.83501        60.72902         0.75622
C         49.96224        62.93763         1.01230
C         48.76035        63.56765         0.35107
C         50.02796        65.66103        -0.02659
C         48.78975        64.97372         0.04288
C         50.05163        67.05337        -0.32145
C         48.81759        67.79208        -0.39688
C         50.04289        69.91840        -0.43778
C         48.83519        69.25553        -0.45358
C         50.13017        71.39134        -0.32130
C         48.83386        72.15851        -0.09400
C         50.16829        74.06959         0.79896
C         48.91157        73.49306         0.54703
C         51.37184        42.16943         0.51253
C         52.62757        44.28689         0.46913
C         51.41977        43.58264         0.36894
C         52.68243        45.71238         0.43510
C         51.43495        46.44357         0.38329
C         52.70274        48.57609         0.40561
C         51.46353        47.86782         0.36665
C         52.71281        49.99834         0.40104
C         51.47327        50.72110         0.32344
C         52.71444        52.85332         0.50208
C         51.47370        52.13767         0.38124
C         52.67850        54.24787         0.72065
C         51.35392        54.84677         1.15158
C         52.62226        57.14974         1.05450
C         51.35262        56.36495         1.18239
C         52.56453        58.62580         0.87188
C         51.32914        59.29679         1.04136
C         52.51542        61.43736         0.96374
C         51.28609        60.71918         1.00101
C         52.49387        62.91773         0.99734
C         51.24720        63.61656         0.64822
C         52.49166        65.61312        -0.06364
C         51.26518        64.95298         0.23275
C         52.47565        66.89748        -0.63432
C         51.29609        67.69726        -0.58281
C         52.54759        69.99367        -0.53584
C         51.32968        69.16530        -0.23036
C         52.58410        71.27969         0.06917
C         51.37522        72.01345         0.16848
C         52.67313        73.94571         0.89252
C         51.39755        73.35393         0.63223
C         53.89427        46.41854         0.48000
C         55.15171        48.56553         0.51403
C         53.93987        47.84551         0.46521
C         55.17596        49.98377         0.49084
C         53.94149        50.71214         0.42595
C         55.18858        52.86698         0.35698
C         53.96210        52.14422         0.41715
C         55.09936        54.30584         0.36111
C         53.87586        54.99056         0.68090
C         55.05748        57.16697         0.62129
C         53.88967        56.43420         0.76081
C         55.03232        58.64683         0.33247
C         53.76045        59.34659         0.74596
C         55.01878        61.48416         0.81707
C         53.74669        60.75811         0.84820
C         55.03389        62.85637         0.78143
C         53.79693        63.65243         0.89212
C         54.89323        65.32587        -0.70270
C         53.84950        65.10357         0.42379
C         54.95977        66.82490        -1.02039
C         53.73022        67.37084        -1.20488
C         55.02536        69.89781        -0.57441
C         53.74520        69.53219        -1.06727
C         54.99297        70.96240         0.36808
C         53.84375        71.83422         0.42743
C         55.14029        73.95682         0.72644
C         53.88120        73.24785         0.72766
C         56.38377        50.71907         0.57256
C         57.72153        52.73521         0.73301
C         56.44309        52.12735         0.48460
C         58.03717        54.05625         0.36199
C         56.20859        55.12546         0.06095
C         57.57209        57.15978         0.55362
C         56.31376        56.49684         0.39742
C         57.56640        58.59993         0.76439
C         56.30715        59.35585         0.73344
C         57.51223        61.50651         1.05966
C         56.27009        60.72433         0.88287
C         57.53657        62.88808         0.65926
C         56.28333        63.69134         0.73559
C         57.48014        65.55396        -0.45442
C         56.26904        64.64407        -0.48112
C         57.44154        66.78599        -1.14731
C         56.18594        67.55602        -1.55768
C         57.36885        70.04075        -1.30517
C         56.25435        69.23050        -1.07840
C         57.45215        71.47266        -0.93017
C         56.28659        72.42228        -0.97838
C         57.56027        74.07557         0.32174
C         56.29055        73.51267         0.06582
C         58.94422        54.98017         0.87540
C         60.00604        57.12902         0.95662
C         58.83450        56.42377         0.71714
C         60.06715        58.59539         1.19981
C         58.76397        59.28755         0.94351
C         60.03459        61.45549         0.56831
C         58.82692        60.75101         1.06411
C         60.02647        62.82437         0.33935
C         58.81583        63.66968         0.68565
C         59.94643        65.60496        -0.45756
C         58.72854        64.96686        -0.11602
C         59.92140        66.84719        -1.14215
C         58.66940        67.30618        -1.56703
C         59.89233        69.96169        -1.38103
C         58.65775        69.49495        -1.74305
C         59.97621        71.43843        -1.07518
C         58.66570        72.05550        -0.63185
C         59.99461        73.95971         0.28377
C         58.74657        73.40283        -0.05916
C         61.20719        59.27409         0.49415
C         62.38602        61.32343        -0.16384
C         61.21125        60.65250         0.26741
C         62.42553        62.72714        -0.29131
C         61.21490        63.49717        -0.10670
C         62.41689        65.55042        -0.75586
C         61.20918        64.88051        -0.38616
C         62.43250        66.92766        -1.09387
C         61.16032        67.61852        -1.43125
C         62.47649        69.91535        -1.42356
C         61.14718        69.15386        -1.57220
C         62.42712        71.07320        -0.43676
C         61.15705        71.82776        -0.22563
C         62.44764        73.82713         0.47888
C         61.21850        73.24775         0.19600
C         63.62809        63.40368        -0.58396
C         64.87601        65.48969        -0.93030
C         63.65809        64.80553        -0.75161
C         64.90629        66.89746        -1.00874
C         63.66326        67.63060        -1.12698
C         64.89991        69.72141        -0.84567
C         63.69823        69.05521        -1.12104
C         64.91160        71.12652        -0.47867
C         63.69954        71.78983        -0.20780
C         64.91770        73.80228         0.44894
C         63.69145        73.13602         0.26715
C         66.13083        67.59767        -0.97427
C         67.36818        69.70294        -0.67917
C         66.15230        68.99975        -0.83986
C         67.38893        71.08783        -0.39342
C         66.14600        71.78911        -0.23689
C         67.39548        73.80837         0.39886
C         66.14849        73.15027         0.20227
C         68.60443        71.78726        -0.18624
C         68.59469        73.13287         0.19131
O         43.33239        43.81121         2.37943
O         39.57167        52.56963        -2.53047
O         45.51939        48.70049        -1.63264
O         43.13084        42.20799        -0.80683
O         36.59388        55.86925         0.53612
O         36.28125        69.82248        -0.63031
O         46.86308        41.86939        -1.39899
O         52.06046        56.82412         2.39420
O         55.51037        72.43341        -1.92421
O         46.99621        48.61558         1.64655
O         41.84693        69.80017        -0.80699
O         37.53652        66.11563         2.21352
O         37.47768        69.28553         2.83168
O         61.59923        70.84411         0.75820
O         37.51924        48.92510        -2.08115
O         31.86897        69.39830         1.59269
O         42.55646        53.20157         0.66869
O         57.23281        54.56864        -0.68956
O         42.07639        60.84458         1.61689
O         49.26484        58.93237         2.38329
O         34.87213        63.02948        -1.59584
O         32.22159        67.70151        -1.70330
O         45.71674        65.21383        -1.80321
O         38.27544        60.61501         1.58454
O         34.23566        72.09156        -1.25403
O         49.47259        72.11780        -1.41371
O         53.15363        63.50877         2.21324
O         46.21579        35.22200        -1.01153
O         58.29624        61.26257         2.35662
O         34.52456        59.21850        -2.06465
O         45.96072        52.52891        -2.13196
O         61.19578        68.29194        -2.74786
O         53.66038        68.51352        -2.01824
O         41.09197        64.97250         1.95138
O         23.06108        71.69247        -0.67858
O         28.48669        67.53940        -1.95626
O         58.60455        68.32964        -2.50786
O         44.61106        46.48444         2.00841
O         40.07431        45.25528         1.92267
O         41.71538        51.34878        -2.54801
O         49.79027        63.20907         2.45808
H         50.61322        62.92219         2.91097
O         37.76910        71.70259         3.05235
H         37.64152        70.80406         3.49572
O         54.26773        64.71724        -1.85870
H         54.93540        64.11911        -2.27584
O         51.41770        69.08130         1.26879
H         50.69225        68.49466         1.57672
O         40.33779        58.86964        -2.22367
H         41.17401        58.49407        -2.57604
O         47.28697        56.89987         2.31162
H         47.92882        57.48985         2.77650
O         34.61747        68.35449        -1.65095
H         33.81480        68.37287        -2.22233
O         60.24477        72.09256        -2.36191
H         59.53793        71.83534        -2.99123
O         41.22605        63.76617        -1.49701
H         41.28907        62.92584        -1.99789
O         37.83796        57.30307        -2.65210
H         38.62314        57.86629        -2.85871
O         48.39772        53.25303        -2.07590
H         47.59380        53.27172        -2.64915
O         59.00686        64.07607         2.10637
H         58.97786        63.23273         2.62195
O         26.49695        69.45506        -2.23762
H         27.19320        68.84507        -2.59023
O         41.71701        46.95289        -1.85312
H         42.11386        47.60737        -2.48183
O         56.31372        64.48394         1.95197
H         57.26221        64.59209         2.22142
O         44.05312        58.93562         1.89262
H         43.32800        59.47112         2.29509
O         35.58190        72.40451        -1.61444
H         36.03148        71.51600        -1.59623
O         26.78332        72.34089        -2.05088
H         26.69530        71.42095        -2.40681
O         56.11976        67.59820        -2.97759
H         55.25382        67.99987        -3.21595
O         56.54225        63.77641        -1.62822
H         57.01875        64.30259        -2.30577
O         60.31024        58.75183         2.66479
H         59.86891        59.58080         2.95462
O         35.48638        50.25741         1.44871
H         35.35174        51.22110         1.58396
O         35.16398        56.85275        -2.67916
H         35.97642        57.24315        -3.07957
O         55.00780        58.71340        -1.14524
H         55.81997        58.26996        -1.47239
O         54.17709        65.94164         1.54706
H         53.96125        65.43844         2.36355
O         45.82466        44.12898         2.48240
H         45.14200        44.54159         3.06131
O         45.03038        58.74921        -1.61722
H         45.79520        58.35582        -2.08718
O         49.39837        42.21300        -1.76073
H         48.55794        42.33697        -2.26030
O         35.07526        61.38434         1.65713
H         35.05626        60.47218         2.01768
O         43.10067        49.22867        -2.59565
H         42.93125        49.98316        -3.20737
O         42.85835        70.93544         2.49553
H         42.85003        71.77181         3.00784
O         56.02183        71.11939         1.24086
H         55.84691        71.87890         1.83335
O         29.00478        73.40040         2.15275
H         29.82091        72.94468         2.45280
O         51.16563        54.40278         2.53339
H         51.61791        55.07045         3.10067
O         62.73218        70.51660        -2.72011
H         62.50038        69.84114        -3.39573
O         34.18667        68.56991         1.96277
H         33.30214        68.63459         2.39185
O         46.27770        67.94504        -2.21274
H         46.13963        67.02495        -2.54371
O         41.57189        41.61137         2.41098
H         40.91942        42.11311         2.94331
O         32.86037        58.50265         1.18633
H         32.10068        57.99265         1.54119
O         27.92680        58.61884         0.05351
H         28.16547        58.77342         0.99005
H         22.94516        75.37241         0.50997
H         25.46399        75.42626         0.34372
H         27.79195        75.33414         0.66156
H         30.38931        75.35333         0.48761
H         32.81513        75.36753         0.71287
H         35.31403        75.36411         0.94220
H         37.78339        75.30149         1.04226
H         40.24467        75.27322         0.97427
H         42.73608        75.25207         1.06609
H         45.23302        75.24617         1.06740
H         47.70302        75.17787         1.19447
H         50.20835        75.09205         1.20449
H         52.71426        75.02241         1.11576
H         55.19580        74.90776         1.28281
H         57.63784        74.97990         0.94603
H         60.01444        74.98559         0.68285
H         62.48606        74.87986         0.79788
H         64.92022        74.84769         0.79149
H         67.40214        74.85904         0.72259
H         22.65603        69.47290         1.82500
H         21.16613        71.84324         2.10008
H         21.14632        74.20102         1.52236
H         24.58499        65.27188         0.54440
H         23.51194        67.43208         0.97833
H         26.87754        60.88491        -0.30828
H         25.70860        63.05230         0.14197
H         29.34418        56.53997        -0.53836
H         28.60013        59.04929        -1.83511
H         31.84798        52.22769        -0.50401
H         30.59373        54.36278        -0.55436
H         34.42948        47.98782         0.27678
H         33.11004        50.10366        -0.31193
H         36.81748        43.79563         0.39912
H         35.61296        45.81997         0.27985
H         39.27163        39.43307         0.01962
H         38.00804        41.58303         0.12210
H         41.77969        35.17621         0.02480
H         40.52619        37.30149         0.02955
H         45.10503        31.91200         0.60141
H         43.15528        33.01717        -0.17594
H         47.11905        33.02602         1.38131
H         48.46631        35.48749         1.47471
H         49.74313        37.43673         0.92685
H         50.97671        39.53552         0.90423
H         52.28136        41.63262         0.82392
H         53.56765        43.72302         0.56858
H         54.84061        45.85842         0.52610
H         56.10356        48.01629         0.57144
H         57.32684        50.16452         0.69196
H         58.46740        52.14019         1.28129
H         59.76674        54.62056         1.51157
H         60.93705        56.56335         1.11421
H         62.11151        58.69089         0.26444
H         63.30248        60.74061        -0.33734
H         64.56569        62.83317        -0.65664
H         65.82101        64.92713        -0.91740
H         67.07540        67.03432        -0.95179
H         68.31774        69.14906        -0.73074
H         69.55910        71.25694        -0.31290
H         69.54775        73.65801         0.34627
