         671
 CSIRO Nanostructure Databank - Neutral Graphene Oxide Data Set
C          6.11833        31.96223         0.58871
C          6.12435        33.31393         0.76158
C          8.60634        27.68446         0.06934
C          8.60059        29.08362         0.35722
C          7.35126        29.83252         0.43150
C          8.66119        31.93739         0.66116
C          7.33822        31.19453         0.58343
C          8.59147        33.36665         1.16546
C          7.34333        34.06523         0.99703
C          8.53817        36.18753         1.15625
C          7.32109        35.44721         1.07837
C          8.52226        37.56690         0.93804
C         11.03319        23.36933        -0.04485
C         10.99532        24.74956         0.15105
C          9.80448        25.50639         0.03313
C         11.07279        27.64018         0.12859
C          9.78403        26.92104         0.10953
C         11.07652        29.14903         0.39960
C          9.78541        29.75669         0.67244
C         10.99637        31.79668         1.64806
C          9.66527        31.06560         1.41683
C         11.00272        33.30189         1.84631
C          9.75228        34.05475         1.51440
C         10.99906        36.22171         1.33034
C          9.78820        35.49663         1.39740
C         10.99008        37.59045         0.90901
C          9.72680        38.28933         0.75925
C         10.88060        40.37005         0.11992
C          9.69362        39.64446         0.39629
C         10.85184        41.72892        -0.21411
C         13.33222        18.98822         0.37824
C         13.37411        20.37940         0.38612
C         12.19855        21.16132         0.20439
C         13.44530        23.25366         0.39038
C         12.23290        22.58433         0.17767
C         13.49295        24.71331         0.05418
C         12.26500        25.42793         0.63988
C         13.51110        27.61552         0.48115
C         12.32643        26.92230         0.38164
C         13.58206        29.05145         0.73337
C         12.32680        29.79314         0.86637
C         13.49441        31.77888         1.72852
C         12.26297        31.09064         1.32566
C         13.54374        33.26202         1.88401
C         12.30240        34.07408         1.99850
C         13.53324        36.30194         1.28636
C         12.29637        35.59068         1.71333
C         13.45779        37.58621         0.64882
C         12.18604        38.28017         0.59358
C         13.33082        40.35703        -0.08387
C         12.14990        39.66082         0.19402
C         13.32446        41.74905        -0.40433
C         12.04759        42.46576        -0.49772
C         13.28400        44.49334        -1.32452
C         12.02151        43.79535        -0.87592
C         13.28041        45.99887        -1.18224
C         15.71847        14.63138        -0.19892
C         15.72395        16.03981         0.02868
C         14.55217        16.75460         0.25393
C         15.81207        18.91123         0.29768
C         14.54899        18.17881         0.76514
C         15.81882        20.36994         0.72139
C         14.65378        21.07005         0.64709
C         15.94561        23.24654         0.59791
C         14.64412        22.55293         0.96771
C         15.95911        24.67927         0.48615
C         14.77532        25.40297         0.41250
C         16.09442        27.58048         0.55654
C         14.78699        26.87020         0.34171
C         16.10250        29.00402         0.97897
C         14.80480        29.66149         1.04738
C         16.08653        31.77219         1.74148
C         14.78460        31.01588         1.62818
C         15.97400        33.21502         1.30252
C         14.79427        33.79203         2.04391
C         16.00046        36.24366         0.88099
C         14.81854        35.85061         1.58894
C         15.90954        37.55451         0.29541
C         14.64885        38.23721         0.29597
C         15.80107        40.34304        -0.50126
C         14.65661        39.73487         0.24273
C         15.78061        41.70883        -0.70490
C         14.53249        42.42436        -0.59228
C         15.78063        44.58820        -1.08314
C         14.50666        43.92675        -0.60742
C         15.74959        45.98238        -1.19860
C         14.46751        46.69690        -1.15466
C         15.69480        48.84165        -1.14346
C         14.50145        48.13641        -1.14883
C         15.71432        50.28008        -1.05216
C         18.18722        10.31907         0.37809
C         18.15919        11.81988         0.51022
C         16.91844        12.50565        -0.01043
C         18.20558        14.60282        -0.52698
C         16.92123        13.87263        -0.22292
C         18.19596        16.03588        -0.10267
C         17.03114        16.70699         0.11534
C         18.35383        18.81195         0.82390
C         17.05399        18.10960         0.62243
C         18.39642        20.29627         1.01619
C         17.09805        21.07242         1.01561
C         18.40858        23.16869         0.77387
C         17.16365        22.53249         0.74530
C         18.47477        24.59376         0.30708
C         17.23020        25.38492         0.59046
C         18.56717        27.41002         1.04941
C         17.28311        26.73820         0.76640
C         18.59745        28.88878         1.25898
C         17.30562        29.62693         1.26657
C         18.65894        31.90912         1.56567
C         17.37767        31.05446         1.66635
C         18.42430        33.28708         0.90599
C         17.26679        34.01253         1.11692
C         18.34456        36.10023         0.22690
C         17.18651        35.44944         0.76002
C         18.30353        37.48710        -0.16341
C         17.07406        38.18361        -0.19158
C         18.25954        40.28994        -0.88608
C         16.97417        39.50582        -0.91761
C         18.23985        41.70463        -1.04828
C         17.00587        42.42725        -1.02550
C         18.24278        44.52843        -1.34920
C         17.00326        43.83734        -1.15910
C         18.21148        45.99202        -1.54545
C         16.95879        46.73107        -1.33139
C         18.17917        48.87062        -1.02070
C         16.96382        48.13598        -1.20965
C         18.14145        50.28136        -0.78928
C         16.88236        50.98255        -0.88427
C         18.16862        53.17477        -0.62217
C         16.82385        52.47881        -0.65271
C         18.22202        54.54976        -0.63109
C         20.53189         5.93877         0.57947
C         20.59160         7.44814         0.47897
C         19.40347         8.17070         0.39676
C         20.66980        10.27347         0.34348
C         19.39497         9.60209         0.38731
C         20.69365        11.77554         0.48155
C         19.44131        12.39682        -0.14294
C         20.69076        14.56680        -0.20761
C         19.48700        13.90347        -0.16027
C         20.75227        16.02042        -0.27984
C         19.48898        16.76072        -0.20569
C         20.89952        18.81742         0.40529
C         19.57882        18.20516         0.22509
C         20.97510        20.22953         0.94866
C         19.66782        20.97762         0.77445
C         21.01599        23.16095         0.73188
C         19.66198        22.41736         0.94261
C         20.97308        24.60828         0.42096
C         19.77327        25.31466         0.55106
C         20.98319        27.45350         0.44404
C         19.79891        26.72120         0.63615
C         20.98048        28.91275         0.50156
C         19.85362        29.61229         0.93919
C         21.03335        31.77197         0.37117
C         19.88629        31.08434         1.07781
C         20.80540        33.14400        -0.16981
C         19.54895        33.90484         0.15198
C         20.69291        36.02463        -0.50970
C         19.55367        35.37698        -0.02204
C         20.71592        37.44755        -0.66974
C         19.50924        38.16478        -0.54663
C         20.69729        40.32582        -0.89005
C         19.47384        39.60321        -0.78132
C         20.70570        41.69843        -1.13159
C         19.47448        42.41197        -1.18376
C         20.73527        44.55444        -1.24394
C         19.46230        43.83984        -1.31402
C         20.72925        46.00356        -1.05366
C         19.52060        46.76709        -1.39919
C         20.59963        48.80268        -0.54414
C         19.44292        48.17925        -0.98674
C         20.53037        50.21021        -0.01605
C         19.33050        50.99193        -0.48274
C         20.62852        53.10578        -0.34526
C         19.37864        52.41084        -0.46572
C         20.68977        54.51397        -0.39210
C         19.46524        55.26107        -0.52125
C         20.74320        57.35850        -0.45863
C         19.50919        56.65568        -0.53820
C         20.76380        58.75815        -0.39923
C         23.10477         3.13306         0.44501
C         21.88952         3.83681         0.44745
C         23.07938         5.93501         0.69012
C         21.87249         5.23931         0.56260
C         23.07840         7.40729         0.79344
C         21.82935         8.13186         0.45464
C         23.15475        10.20370        -0.10022
C         21.85995         9.54612         0.33520
C         23.16301        11.71329         0.00011
C         21.96268        12.43641         0.00742
C         23.17664        14.51552        -0.41140
C         21.96243        13.83730        -0.16755
C         23.17590        15.97596        -0.82499
C         21.94614        16.71694        -0.35224
C         23.30295        18.83271        -0.10974
C         22.01854        18.13326        -0.03994
C         23.34241        20.22590         0.04830
C         22.18097        20.98133         0.40091
C         23.37969        23.10140        -0.11784
C         22.20339        22.37833         0.35504
C         23.37119        24.57687        -0.15532
C         22.16993        25.31019         0.13125
C         23.36404        27.44434        -0.23166
C         22.16563        26.73612         0.10261
C         23.34716        28.85983        -0.39830
C         22.14628        29.60406        -0.04591
C         23.15854        31.69033        -0.97532
C         22.08793        30.97144        -0.26490
C         23.18724        33.17717        -0.92773
C         22.01756        33.85569        -0.64045
C         23.20541        36.03517        -1.22346
C         21.88850        35.27717        -0.94381
C         23.20257        37.48433        -0.95583
C         21.98144        38.13641        -0.82164
C         23.25192        40.34593        -0.64465
C         21.95636        39.59728        -0.62171
C         23.24440        41.77756        -0.95372
C         21.99187        42.40851        -1.50041
C         23.21735        44.68588        -1.21133
C         21.93199        43.88498        -1.24254
C         23.05804        45.82670        -0.18742
C         21.83518        46.64672        -0.55192
C         23.02490        48.74048        -0.07580
C         21.83277        48.07934        -0.39246
C         23.11328        50.21754        -0.30981
C         21.81692        50.95412        -0.18682
C         23.11807        53.01137        -0.03544
C         21.85580        52.32821        -0.22929
C         23.23785        54.43626        -0.50125
C         21.94697        55.22784        -0.37174
C         23.29208        57.36527        -0.62588
C         21.98111        56.60812        -0.42517
C         23.22224        58.80763        -0.16357
C         21.97307        59.48533        -0.17185
C         23.09786        61.55739         0.43282
C         21.93192        60.87232         0.11474
C         24.30827         3.80763         0.55400
C         25.55978         5.90638         0.77376
C         24.33610         5.23324         0.68158
C         25.71333         7.38529         1.00272
C         24.38864         8.14148         0.85049
C         25.62721        10.18022         0.15675
C         24.43622         9.54208         0.36699
C         25.64223        11.65648         0.04601
C         24.37919        12.40265        -0.15392
C         25.65646        14.50021        -0.68189
C         24.38176        13.79309        -0.40298
C         25.69816        15.97826        -0.66018
C         24.48015        16.69984        -0.56830
C         25.72958        18.82099        -0.70040
C         24.49724        18.09854        -0.41506
C         25.74366        20.18195        -0.71144
C         24.65953        20.96304        -0.01849
C         25.67198        23.13974        -1.11875
C         24.51754        22.40169        -0.45156
C         25.83798        24.50581        -0.44410
C         24.54767        25.28101        -0.38216
C         25.76114        27.42243        -0.75087
C         24.56399        26.71412        -0.43460
C         25.73533        28.81121        -1.00766
C         24.51725        29.51856        -0.85809
C         25.69108        31.73384        -1.41761
C         24.44374        30.94243        -1.25819
C         25.65810        33.10940        -1.41491
C         24.42783        33.87166        -1.20947
C         25.70875        36.01675        -1.19428
C         24.46134        35.27334        -1.20643
C         25.69974        37.44967        -1.00735
C         24.47277        38.17844        -0.90108
C         25.71847        40.31581        -0.80326
C         24.50785        39.59287        -0.80012
C         25.71401        41.76274        -0.71707
C         24.45171        42.49764        -0.85600
C         25.73761        44.69152        -0.83198
C         24.46316        43.89899        -0.92678
C         25.58139        45.98680        -0.04908
C         24.32000        46.62609        -0.00801
C         25.38869        48.74161         0.64919
C         24.23624        48.03179         0.20824
C         25.36322        50.14289         0.78874
C         24.22775        50.89668         0.43326
C         25.30290        52.99465         1.29670
C         24.21577        52.31953         0.47220
C         25.24984        54.55856         1.28397
C         24.45683        55.14868         0.09188
C         25.45203        57.39606         0.90678
C         24.48706        56.62669        -0.00615
C         25.70748        58.76884         0.25728
C         24.38877        59.50628         0.18232
C         24.31909        60.87545         0.48660
C         26.84628         7.97459         0.13454
C         28.10287        10.13276        -0.00535
C         26.91765         9.48731         0.18367
C         28.18292        11.57052        -0.47740
C         26.94259        12.34923        -0.09708
C         28.15351        14.54829        -0.05309
C         26.94812        13.77656        -0.53658
C         28.18034        15.96303        -0.58384
C         26.94649        16.62755        -0.78330
C         28.22570        18.79552        -1.04502
C         26.91861        18.05600        -1.26379
C         28.20824        20.16014        -1.13247
C         26.90709        20.89402        -1.34845
C         28.18713        23.04675        -1.04222
C         26.97033        22.36780        -1.07211
C         28.17202        24.49650        -1.47931
C         27.00666        25.30243        -0.95139
C         28.27591        27.43471        -0.82965
C         26.98936        26.66542        -0.96062
C         28.25863        28.88230        -1.24411
C         26.92629        29.40629        -1.77925
C         28.21200        31.70456        -1.78268
C         26.87157        30.98520        -2.03235
C         28.15501        33.13615        -1.28024
C         26.91027        33.88458        -1.82243
C         28.16482        36.03029        -1.20305
C         26.91877        35.33704        -1.36752
C         28.17559        37.45624        -0.99975
C         26.93658        38.16125        -0.94213
C         28.18161        40.27908        -0.67050
C         26.95136        39.59174        -0.82039
C         28.23574        41.78812        -0.68733
C         26.90389        42.46723        -0.55793
C         28.06102        44.53338         0.10804
C         26.92658        43.88566        -0.38247
C         27.99567        45.93554         0.48275
C         26.73372        46.62212         0.44226
C         27.80207        48.66825         1.55496
C         26.50458        47.90300         1.23505
C         27.82845        50.20218         1.61929
C         26.64232        50.87280         0.95694
C         27.91287        53.04378         1.38564
C         26.64783        52.35990         0.98546
C         27.83717        54.45654         1.54923
C         26.66222        55.20551         1.28628
C         26.70455        56.56835         1.07368
C         29.43123        12.37390        -0.17587
C         30.64382        14.52249        -0.15937
C         29.44118        13.75592        -0.19647
C         30.64249        15.92808        -0.28570
C         29.41287        16.64734        -0.57945
C         30.68126        18.75038        -0.66798
C         29.46439        18.06801        -0.80649
C         30.76883        20.18994        -0.94649
C         29.45908        20.93020        -1.17241
C         30.63663        23.08862        -0.44292
C         29.42435        22.37243        -0.97311
C         30.72020        24.52034        -0.88648
C         29.51608        25.20835        -1.37465
C         30.75055        27.38964        -0.86923
C         29.51851        26.70443        -1.29069
C         30.79558        28.84905        -1.22817
C         29.44571        29.54073        -1.26379
C         30.67687        31.74706        -0.98247
C         29.50071        30.99593        -1.51527
C         30.66368        33.13087        -0.97406
C         29.47786        33.87715        -1.57625
C         30.58104        35.97763        -0.81985
C         29.38357        35.31036        -1.12664
C         30.61577        37.39843        -0.89264
C         29.42067        38.16585        -0.92343
C         30.58445        40.36917        -0.32349
C         29.40910        39.60091        -0.70485
C         30.37503        41.48071         0.70731
C         29.28421        42.39637         0.21522
C         30.38478        44.44284         1.04334
C         29.25271        43.75911         0.46734
C         30.35984        45.82626         1.22249
C         29.15111        46.55521         1.00167
C         30.38264        48.72785         1.57557
C         29.10822        47.95908         1.46660
C         30.36570        50.10465         1.59030
C         29.14917        50.84565         1.08863
C         29.09552        52.32591         1.43058
C         31.85158        16.66040        -0.15388
C         33.09463        18.80128        -0.11554
C         31.89172        18.05842        -0.30083
C         33.13503        20.20797        -0.17800
C         31.95818        20.95325        -0.51028
C         33.17081        23.08754        -0.21448
C         31.96359        22.34759        -0.47894
C         33.10422        24.52573        -0.28232
C         31.85110        25.22906        -0.52089
C         32.98597        27.40466         0.18482
C         31.86071        26.68665        -0.51589
C         33.05477        28.89089        -0.10097
C         31.89854        29.61430        -0.54836
C         33.01438        31.76273        -0.14563
C         31.85766        31.01824        -0.56955
C         32.97896        33.14284        -0.07229
C         31.80711        33.87199        -0.49041
C         32.89806        36.09140         0.16973
C         31.78773        35.27359        -0.47793
C         33.06840        37.45752        -0.45614
C         31.92865        37.96909        -1.03714
C         33.07663        40.42586        -0.11755
C         31.85462        40.02539        -0.73131
C         32.99609        41.69121         0.65749
C         31.66868        42.22927         1.06547
C         32.87245        44.44638         1.48303
C         31.56424        43.66668         1.58509
C         32.78316        45.84492         1.75195
C         31.56973        46.54796         1.64659
C         31.55862        47.94994         1.78161
C         34.30275        20.95131         0.16984
C         35.66340        22.88798         0.76209
C         34.35666        22.33638         0.15681
C         35.99633        24.31680         0.42566
C         34.26200        25.34412        -0.34878
C         35.50612        27.37408         0.38255
C         34.31335        26.70556        -0.00337
C         35.45860        28.81406         0.52514
C         34.23928        29.54094         0.20641
C         35.32858        31.71433         0.86082
C         34.33386        31.02532        -0.04846
C         35.41196        33.18234         0.65673
C         34.09285        33.90297         0.61510
C         35.39253        36.03549         0.23756
C         34.20410        35.35391         0.23254
C         35.45478        37.48918         0.10391
C         34.29002        38.21739        -0.24449
C         35.45326        40.37625         0.40597
C         34.25593        39.67336        -0.08880
C         35.44062        41.69550         0.74141
C         34.21733        42.55593         0.51418
C         34.09727        43.85844         1.25370
C         36.68600        25.23997         1.13745
C         37.84087        27.40688         1.14552
C         36.70508        26.67662         0.81360
C         37.86235        28.83548         1.11772
C         36.62111        29.51390         0.88949
C         37.82756        31.69916         1.31045
C         36.58284        30.95899         1.14813
C         37.74588        33.19080         1.50723
C         36.58785        33.84194         0.76678
C         37.94704        36.00796         0.62449
C         36.66327        35.27453         0.38418
C         37.84925        37.47075         0.74406
C         36.70186        38.15122         0.43159
C         36.78433        39.66114         0.38064
C         39.03169        29.57825         1.37614
C         40.25952        31.76415         1.61013
C         39.02830        31.00546         1.42203
C         40.27274        33.12293         1.58956
C         39.06915        33.90735         1.36556
C         39.12109        35.24516         1.11965
O         23.45145        31.17755        -2.31910
O         21.06080        31.58901         1.81777
O         29.66395        26.07208        -2.58738
O         19.70463        33.17428        -1.15519
O         35.44550        24.73399        -0.80236
O         37.58262        35.51705        -0.74224
O         26.82719        51.66968        -0.29645
O         35.48520        31.27729         2.23277
O         29.13449        31.44383        -2.88266
O         10.94557        32.38392         2.99840
O         22.56402        40.03119         0.65943
O         17.68389        18.14751         1.93931
O         26.42184        12.17171         1.23615
O         31.99426        39.13436        -1.81219
O         12.26066        35.04635         3.07892
O         15.56130        27.40346        -0.81909
O         26.88555        28.75276        -3.03036
O         14.07009        31.08727         2.91350
O         32.49793        41.45478         2.02129
O         18.68644        27.96470         2.42055
O         22.30167        35.63723        -2.30192
O         19.37178        17.84915        -1.20011
O         28.38275        48.09515         2.78090
O         16.74624        31.38979         2.96711
O         25.25815        55.78862        -0.95188
O         24.62074        55.00237         2.44770
O         17.73232        20.71966         2.28639
O         18.97177        46.45621        -2.71945
O         26.43368        13.99404        -1.86378
O         30.34094        20.54643        -2.31256
O         11.19682        28.61105        -0.96385
O         20.52418        22.88275         2.07983
O         14.98482        35.00372         2.69117
O         18.28889        14.59110        -2.08013
O         23.59857         7.96882         2.08643
O         22.79792        45.17144         1.08615
H         22.84727        45.84730         1.79468
O         28.47855        27.46487         0.63663
H         27.78773        28.04473         1.02243
O         23.46227        54.31667        -1.94848
H         24.39288        54.60020        -2.11792
O         24.84179        57.62232         2.18573
H         24.66582        56.70662         2.56554
O         12.32247        25.26408         2.07864
H         11.47301        25.56410         2.46305
O         26.63732         7.60464        -1.23951
H         25.98645         8.22074        -1.63618
O         36.76508        22.05116         0.37141
H         36.90437        22.16572        -0.59155
O         25.14182        21.05644         1.38078
H         24.50766        21.62109         1.87325
O         14.51458        22.66735         2.42736
H         15.21445        22.11057         2.83255
O         23.17425         9.94356        -1.55834
H         22.38335        10.37709        -1.94731
O         20.35626        50.05411         1.45004
H         20.35392        50.95418         1.84147
O         27.94349        14.68098         1.38929
H         28.76673        15.04092         1.78142
O         26.72701        17.98496        -2.70985
H         26.64717        18.91683        -3.03324
O         18.99091        32.32454         2.90935
H         19.06764        31.52743         3.47463
O         13.43358        44.20582        -2.75041
H         12.65707        44.57743        -3.21827
O         28.01716        33.03390         0.16039
H         27.99529        33.94190         0.53152
O         33.66103        33.90543         2.04407
H         34.45911        34.05358         2.59692
O         18.08644        12.10301         1.94114
H         18.99870        12.02950         2.31722
O         34.25015        42.93411        -0.90609
H         35.08997        43.41188        -1.07135
O         25.02600        52.58935         2.65125
H         24.70031        53.43017         3.09205
O         23.06296        15.96328        -2.29134
H         23.90369        15.60959        -2.65462
O         29.23607        50.70424        -0.35428
H         28.47325        51.20133        -0.74541
O         23.36840        45.31473        -2.52548
H         23.22766        44.61411        -3.19927
O         18.47007        24.46182        -1.17798
H         17.55190        24.24785        -1.45309
O         32.44899        36.30526         1.55499
H         32.59966        35.44712         2.02666
O         25.94688        47.46277         2.51373
H         26.71969        47.28582         3.10262
O         25.29160        23.34059        -2.49949
H         25.49542        22.50969        -2.98708
O         27.71941        50.57086         3.01068
H         28.10815        49.83344         3.53659
O         26.25780        58.59611        -1.05413
H         25.57469        58.17128        -1.62075
O         32.65868        27.28614         1.61574
H         33.29175        27.85027         2.10961
O         14.89885        40.13876         1.66623
H         14.15240        39.78312         2.19635
O         23.51008        50.33295        -1.73912
H         23.60498        51.29079        -1.93716
O         15.95351        53.10181        -1.60719
H         16.33461        52.97086        -2.49939
O         14.36233        44.31782         0.79716
H         15.05369        43.85180         1.31297
O         15.46921        33.11762        -0.08559
H         16.23306        33.03117        -0.69665
O         26.64504        20.83105        -2.82167
H         27.42458        21.23402        -3.26697
O         26.95426        33.90995        -3.26130
H         26.81792        32.98173        -3.58574
O         28.70298        42.13658        -2.05159
H         27.93781        42.05543        -2.66035
O         28.12953        11.47356        -1.94120
H         28.96688        11.06912        -2.25063
O         17.19936        15.38118        -2.58475
H         17.57963        16.29471        -2.61885
O         29.88512        40.86266         1.92676
H         30.67820        40.57266         2.43183
O         31.30333        43.56265         3.01494
H         31.88452        42.84215         3.34939
O         22.11158        42.26278        -2.97886
H         21.24347        42.51108        -3.36520
O         26.61479        31.15367        -3.44351
H         26.65484        30.21655        -3.81350
O         30.34526        23.16668         1.02008
H         31.00568        23.77497         1.41858
O          9.09478        30.73286         2.70125
H          9.49874        31.34592         3.36269
O         26.15375         7.54606         2.37699
H         25.34144         7.50573         2.93352
O         19.43218        11.97404        -1.53326
H         18.89392        12.62238        -2.04435
O         20.69359        12.05375         1.92418
H         21.46267        11.59205         2.32121
O         26.18522        24.19123         0.94719
H         26.40072        25.03094         1.40520
O         13.39177        24.80612        -1.40136
H         13.60084        25.72998        -1.66081
O         14.59773        18.12077         2.22052
H         13.79602        17.65523         2.53614
O         15.79419        18.92654        -1.15813
H         14.93072        19.29708        -1.44273
O         23.51797        57.41819        -2.06519
H         23.51784        56.48754        -2.38693
O         21.18169        20.13243         2.39875
H         21.00559        21.03108         2.76775
O         37.35360        33.36155         2.92305
H         36.65936        32.67889         3.09846
O         16.73376        39.15949        -2.33495
H         17.51525        38.65750        -2.65119
O         37.65489        40.16070         1.40121
H         37.24937        39.96698         2.27098
O         27.87371        24.33968        -2.90267
H         28.15969        25.17535        -3.34416
O         19.85781         5.55463         1.78784
H         19.10176         6.16059         1.92732
O         34.94138        31.17033        -1.37869
H         34.32752        30.77367        -2.03369
O          9.17312        32.06265        -0.69991
H          8.48282        32.49555        -1.24472
O         29.71151        33.98659        -2.99727
H         29.59949        33.08082        -3.38290
O         31.21190        28.82087        -2.64187
H         30.50150        28.37158        -3.15152
O         26.06931        45.12937        -2.20148
H         25.24080        45.52468        -2.57276
H          5.16584        31.42931         0.44824
H          5.17847        33.87478         0.73888
H          7.64104        27.17070        -0.05393
H          6.40313        29.28538         0.31225
H          6.37358        35.99168         0.95200
H          7.56056        38.08272         0.80043
H         10.10443        22.83888        -0.30656
H          8.85847        24.97718        -0.16104
H          8.72088        40.15032         0.30548
H          9.88372        42.24991        -0.25938
H         12.36337        18.47957         0.25068
H         11.23889        20.64599         0.05089
H         11.05341        44.29900        -1.02844
H         12.32541        46.54516        -1.24131
H         14.75884        14.09382        -0.13925
H         13.58911        16.22033         0.20355
H         13.54761        48.68456        -1.12133
H         14.75646        50.82125        -1.06871
H         17.23884         9.76198         0.43261
H         15.95264        11.99541         0.14105
H         16.34236        52.64342         0.35352
H         17.28981        55.12585        -0.72807
H         19.92683         5.55831        -0.30305
H         18.44014         7.63685         0.38847
H         18.57363        57.22960        -0.61546
H         19.81119        59.30890        -0.42467
H         23.09634         2.03784         0.35517
H         20.93933         3.29112         0.36728
H         23.06027        62.63181         0.66018
H         20.96507        61.39564         0.09894
H         25.25911         3.25609         0.54729
H         26.48346         5.30726         0.78642
H         26.44486        59.35538         0.85835
H         25.23663        61.41344         0.76532
H         27.81487         7.52122         0.45776
H         29.02729         9.53305        -0.05560
H         28.73440        54.99509         1.89616
H         27.68196        57.06109         0.93381
H         30.39626        11.83951        -0.16358
H         31.60956        13.99890        -0.08826
H         31.30673        50.65846         1.73389
H         30.04008        52.85984         1.62535
H         32.77674        16.11833         0.09237
H         34.01520        18.25463         0.13810
H         33.71307        46.41418         1.90814
H         32.50513        48.46842         1.99778
H         35.19632        20.39806         0.49656
H         35.58027        22.79264         1.87884
H         36.38643        42.17532         1.04066
H         34.99595        44.49821         1.28786
H         37.23019        24.92768         2.04167
H         38.74572        26.87399         1.47316
H         38.74279        38.04277         1.03752
H         37.27218        39.92614        -0.60070
H         39.98004        29.04474         1.53756
H         41.19694        31.20458         1.74207
H         41.22772        33.66304         1.67743
H         40.09637        35.75888         1.11632
