         600
 CSIRO Nanostructure Databank - Neutral Graphene Oxide Data Set
C         23.24829        27.47795        -1.62973
C         23.20968        28.86493        -1.56671
C         23.12309        31.79464        -1.44182
C         23.09068        33.15077        -1.21661
C         23.04348        36.04362        -0.78608
C         23.02781        37.41317        -0.64425
C         23.01448        40.33571        -0.39195
C         23.01987        41.71426        -0.33840
C         23.05057        44.64846        -0.45870
C         23.04300        46.03241        -0.39621
C         25.74631        24.71095        -2.06977
C         24.53445        25.35715        -1.84545
C         25.68611        27.50680        -1.92227
C         24.47928        26.77011        -1.79941
C         25.62695        28.96974        -2.02337
C         24.36085        29.65869        -1.73979
C         25.56139        31.82534        -1.42456
C         24.35747        31.09208        -1.56345
C         25.53026        33.19847        -1.07785
C         24.28611        33.89092        -1.01921
C         25.48417        36.02798        -0.64719
C         24.26336        35.31658        -0.80775
C         25.46608        37.44893        -0.50038
C         24.23200        38.15381        -0.51087
C         25.45396        40.30387        -0.31017
C         24.22193        39.59346        -0.39742
C         25.44402        41.72733        -0.26744
C         24.23732        42.44388        -0.30620
C         25.45893        44.61061        -0.06670
C         24.24368        43.90967        -0.29043
C         25.45478        46.03379         0.04055
C         24.23490        46.74914        -0.14034
C         25.41912        48.85605         0.14182
C         24.24747        48.17373        -0.07320
C         28.28370        23.29465        -2.48433
C         28.26606        24.79425        -2.54453
C         26.94532        25.43252        -2.17636
C         28.16792        27.58146        -1.83844
C         26.92728        26.84454        -2.03937
C         28.15418        28.96513        -1.64198
C         26.93722        29.73893        -1.96036
C         27.93637        31.68663        -0.67304
C         26.93134        31.24574        -1.73980
C         27.98626        33.19634        -0.60821
C         26.75981        33.90866        -0.77489
C         27.94600        36.02049        -0.32462
C         26.73000        35.31304        -0.59626
C         27.93429        37.43535        -0.19847
C         26.69942        38.16635        -0.32521
C         27.92826        40.28441         0.01437
C         26.69377        39.57181        -0.24940
C         27.91071        41.66270         0.16337
C         26.75352        42.46376        -0.36369
C         27.85956        44.59064         0.41396
C         26.70171        43.90561         0.08482
C         27.88934        46.02660         0.50204
C         26.66697        46.74916         0.29011
C         27.89504        48.87300         0.53564
C         26.65838        48.16833         0.32382
C         27.94435        50.29087         0.51812
C         30.62234        23.26281        -1.74707
C         29.40295        22.60675        -2.16834
C         30.59801        24.67042        -1.51851
C         29.41034        25.42750        -1.78793
C         30.51828        27.51022        -1.08257
C         29.37391        26.82676        -1.56556
C         30.53165        28.91414        -0.96083
C         29.32361        29.65902        -1.17357
C         30.47041        31.72318        -0.50242
C         29.28594        31.03239        -0.85013
C         30.43845        33.13045        -0.19957
C         29.17419        33.85881        -0.29083
C         30.35869        35.98508         0.16484
C         29.16794        35.29309        -0.14961
C         30.37075        37.39647         0.22124
C         29.15224        38.13397         0.05497
C         30.39148        40.24392         0.39628
C         29.16130        39.54823         0.18295
C         30.39990        41.65380         0.58338
C         29.10855        42.34983         0.65671
C         30.38168        44.56192         0.77612
C         29.09348        43.85248         0.77291
C         30.36713        45.98453         0.83463
C         29.10344        46.71223         0.73494
C         30.32265        48.86473         0.97249
C         29.10858        48.14793         0.75510
C         30.33908        50.26533         0.95150
C         29.12939        50.96627         0.70280
C         33.04448        20.41178        -1.44553
C         31.88322        21.11297        -1.68623
C         33.00081        23.20226        -1.07292
C         31.81900        22.52444        -1.50513
C         32.96829        24.61016        -0.83337
C         31.76280        25.31974        -1.02075
C         32.97720        27.47011        -0.53488
C         31.66647        26.72960        -0.51316
C         32.97448        28.87797        -0.49168
C         31.73639        29.60694        -0.61260
C         32.93146        31.71898        -0.16285
C         31.71646        31.01289        -0.44522
C         32.88242        33.11185         0.11470
C         31.62630        33.79547         0.12194
C         32.85526        35.97778         0.48191
C         31.56466        35.21194         0.64130
C         32.83869        37.35753         0.44325
C         31.60814        38.10743         0.39084
C         32.86543        40.24998         0.63055
C         31.62467        39.51769         0.44917
C         32.84238        41.68019         0.76861
C         31.60118        42.38198         0.74632
C         32.82664        44.54648         0.89954
C         31.58879        43.83302         0.83182
C         32.81834        45.97240         0.98195
C         31.58307        46.67449         0.99267
C         32.84563        48.85458         1.09504
C         31.56423        48.12371         1.40613
C         32.83853        50.27334         1.07342
C         31.59928        50.99531         1.11369
C         32.85264        53.07958         1.27707
C         31.63244        52.38099         1.23988
C         35.52731        18.91989        -1.08306
C         35.45627        20.31057        -0.80811
C         34.23023        21.05718        -1.01330
C         35.35527        23.16063        -0.33925
C         34.20345        22.47147        -0.82256
C         35.37386        24.57167        -0.21537
C         34.17497        25.30325        -0.45050
C         35.41428        27.43476        -0.19607
C         34.17826        26.73403        -0.37886
C         35.41109        28.85302        -0.23235
C         34.20933        29.59014        -0.33826
C         35.37494        31.73956         0.11799
C         34.18698        31.02491        -0.16553
C         35.34500        33.11862         0.45947
C         34.10168        33.81866         0.40346
C         35.31022        35.90430         0.82892
C         34.09893        35.23326         0.55803
C         35.25105        37.36585         1.02681
C         34.14409        38.10092         0.30814
C         35.31619        40.25975         0.91374
C         34.08578        39.56319         0.66975
C         35.30098        41.70296         0.97778
C         34.07526        42.39988         0.88993
C         35.29323        44.55221         0.95463
C         34.06734        43.83784         0.92496
C         35.28662        45.98788         0.96789
C         34.06220        46.69338         1.01684
C         35.29564        48.85306         0.93151
C         34.05492        48.13990         1.02315
C         35.30230        50.27150         0.93826
C         34.07272        50.99501         1.03336
C         35.36765        53.18293         1.23846
C         34.06470        52.41882         1.13174
C         35.33727        54.57121         0.64915
C         37.89004        18.87308        -0.48736
C         36.70003        18.22212        -0.89931
C         37.85128        20.26824        -0.20118
C         36.61457        20.95921        -0.32089
C         37.80884        23.11295         0.43133
C         36.51614        22.36963         0.08099
C         37.82352        24.57380         0.28346
C         36.61444        25.28081         0.05947
C         37.87016        27.40873         0.21688
C         36.63316        26.70663         0.00825
C         37.90828        28.82493         0.19339
C         36.69809        29.55708        -0.19349
C         37.87382        31.71730         0.55889
C         36.67928        31.07644        -0.01194
C         37.78054        33.06347         0.94890
C         36.56189        33.80125         0.82356
C         37.74157        35.97466         1.29876
C         36.53107        35.21953         1.03384
C         37.78040        37.36446         1.33129
C         36.51649        38.11432         1.28484
C         37.74122        40.28575         1.60558
C         36.52195        39.57047         1.09927
C         37.77325        41.72386         1.17135
C         36.54351        42.41770         1.04722
C         37.77452        44.54572         0.91628
C         36.53744        43.84380         0.96245
C         37.77720        45.98322         0.88081
C         36.53394        46.70020         0.91909
C         37.76383        48.82238         0.75533
C         36.52875        48.11724         0.87424
C         37.76409        50.24114         0.63117
C         36.53823        50.99487         0.76636
C         37.73262        53.11161         0.35603
C         36.55689        52.39869         0.73505
C         37.75199        54.51127         0.21599
C         36.47360        55.19883         0.26898
C         40.38311        16.03674        -0.49703
C         39.18959        16.74025        -0.58697
C         40.34124        18.88664        -0.25537
C         39.14464        18.16144        -0.44696
C         40.32468        20.26943         0.06025
C         39.07659        20.97063         0.12056
C         40.28552        23.07198         0.57336
C         39.07937        22.36960         0.35008
C         40.28587        24.52009         0.65750
C         39.06688        25.25089         0.42140
C         40.30785        27.37754         0.61384
C         39.08351        26.67597         0.41903
C         40.31001        28.80193         0.67555
C         39.09919        29.54305         0.48847
C         40.29934        31.63883         1.07395
C         39.08608        30.96990         0.68740
C         40.28689        33.04723         1.36167
C         38.98719        33.72408         1.47808
C         40.26906        35.97151         1.56749
C         38.98379        35.24625         1.60470
C         40.25847        37.38017         1.50858
C         39.02641        38.10081         1.42741
C         40.25593        40.25103         1.27842
C         39.02755        39.52026         1.39744
C         40.24481        41.67489         1.06655
C         38.99954        42.40077         1.03966
C         40.24457        44.51953         0.75668
C         39.00177        43.82450         0.88440
C         40.25138        45.95106         0.73121
C         39.00723        46.67728         0.81550
C         40.21873        48.82962         0.65134
C         39.00164        48.11379         0.74177
C         40.21349        50.22071         0.42249
C         38.97476        50.90939         0.37848
C         40.24502        53.07368        -0.15408
C         38.93195        52.33092         0.01967
C         40.23325        54.53709        -0.03580
C         39.00085        55.23233         0.02667
C         40.24348        57.33835        -0.09013
C         39.04722        56.65836         0.00886
C         42.83827        16.01798        -0.28186
C         41.61024        16.70873        -0.38701
C         42.85409        18.85774         0.03625
C         41.64237        18.20294        -0.56669
C         42.81695        20.23817         0.37263
C         41.54681        20.96568         0.37742
C         42.70300        23.01450         1.23488
C         41.50279        22.33315         0.69391
C         42.69351        24.52732         1.46708
C         41.48480        25.22759         0.88368
C         42.76285        27.34776         0.99275
C         41.51639        26.64116         0.83605
C         42.76591        28.75163         1.02803
C         41.52864        29.49289         0.94274
C         42.75944        31.57121         1.49945
C         41.50349        30.88885         1.15062
C         42.73676        33.05186         1.72409
C         41.45970        33.79978         1.59991
C         42.75269        35.96566         1.88926
C         41.47159        35.22125         1.67001
C         42.79657        37.42658         1.63998
C         41.50332        38.16496         1.87045
C         42.71787        40.25011         1.10738
C         41.49449        39.57369         1.34661
C         42.70631        41.65753         0.85541
C         41.46631        42.36790         0.87835
C         42.70798        44.49175         0.56765
C         41.46989        43.79686         0.72456
C         42.69520        45.92118         0.48116
C         41.48216        46.63470         0.63364
C         42.71082        48.84061         0.46552
C         41.50311        48.10638         0.96318
C         42.69445        50.20616         0.33408
C         41.46144        50.96003         0.30251
C         42.73524        53.07962         0.00858
C         41.49586        52.33540         0.09110
C         42.72075        54.49952        -0.13952
C         41.47522        55.22434        -0.09264
C         42.72933        57.32714        -0.29054
C         41.48175        56.64391        -0.14921
C         44.02737        16.69880        -0.10843
C         45.28791        18.80136         0.39837
C         44.05712        18.12229         0.09711
C         45.27117        20.20742         0.62848
C         44.02796        20.89826         0.65793
C         45.27905        23.06005         1.10255
C         44.01646        22.29095         1.14158
C         45.24946        24.48594         1.11603
C         44.01287        25.20833         1.12681
C         45.25757        27.32826         1.02644
C         44.01334        26.60955         1.04971
C         45.25078        28.75504         1.03014
C         44.01710        29.46933         1.08888
C         45.24964        31.58709         1.12549
C         44.03169        30.87575         1.18907
C         45.24173        33.06602         1.06507
C         43.98444        33.79996         1.37950
C         45.35095        35.94868         1.61054
C         44.05836        35.21804         1.82730
C         45.30010        37.44495         1.43381
C         43.97008        38.11112         1.38888
C         45.17078        40.21206         0.79245
C         43.96066        39.53360         1.10068
C         45.15557        41.63231         0.65315
C         43.94225        42.35424         0.67250
C         45.18632        44.50853         0.41538
C         43.94965        43.79089         0.54208
C         45.15734        45.93669         0.27964
C         43.94161        46.60805         0.28371
C         45.14853        48.77170        -0.34361
C         43.89673        48.06752         0.04988
C         45.24992        50.20781         0.04882
C         43.97271        50.95153         0.29730
C         45.19800        53.07980        -0.13807
C         43.96843        52.40207         0.06488
C         45.18290        54.47870        -0.38250
C         43.94958        55.20246        -0.31049
C         43.90977        56.63480        -0.38834
C         47.70470        18.79805         0.68506
C         46.53189        18.11785         0.45568
C         47.72160        20.20947         0.86474
C         46.49998        20.91558         0.85558
C         47.73681        23.06833         1.02779
C         46.49391        22.35655         1.00231
C         47.73467        24.48650         1.06603
C         46.49411        25.19773         1.07181
C         47.73330        27.34757         1.11836
C         46.49281        26.62394         1.06271
C         47.70777        28.75110         1.10441
C         46.48214        29.47283         1.05626
C         47.71996        31.65100         0.99801
C         46.47574        30.90373         1.07403
C         47.73085        33.07634         0.89690
C         46.52007        33.81194         1.05939
C         47.73175        35.93594         0.79792
C         46.53872        35.20341         1.12816
C         47.68581        37.35655         0.60890
C         46.47435        38.11296         0.82390
C         47.54802        40.17994        -0.11249
C         46.40232        39.47375         0.57520
C         47.70511        41.61253         0.34941
C         46.43190        42.37592         0.62197
C         47.67304        44.50378         0.12741
C         46.43618        43.82777         0.40813
C         47.69852        45.91138         0.00397
C         46.46214        46.72212         0.33169
C         47.69205        48.79296        -0.39882
C         46.42993        47.97146        -0.57001
C         47.70022        50.19291        -0.39646
C         46.47761        50.96153        -0.25803
C         47.73317        53.12681        -0.09490
C         46.45090        52.33923        -0.20497
C         47.60572        54.46320        -0.78697
C         46.41945        55.11003        -0.81588
C         50.20948        20.24154         1.07776
C         48.97541        20.92481         1.00656
C         50.21759        23.05505         1.06108
C         48.97777        22.34636         1.03167
C         50.21841        24.49014         1.06730
C         48.98422        25.20246         1.08461
C         50.23274        27.31113         1.19594
C         48.99200        26.62607         1.14943
C         50.24884        28.77016         1.43295
C         48.95009        29.51366         1.31143
C         50.15272        31.65801         0.78047
C         48.94166        30.96480         1.01540
C         50.16912        33.04755         0.62407
C         48.95568        33.78281         0.72457
C         50.12200        35.89874         0.12562
C         48.93838        35.21253         0.57354
C         50.04974        37.28687        -0.11681
C         48.86389        38.03364         0.15010
C         50.05216        40.15892        -0.36924
C         48.86003        39.44163        -0.07489
C         50.06869        41.60651        -0.42088
C         48.90296        42.34746        -0.10741
C         50.10062        44.45421        -0.46070
C         48.89351        43.75936        -0.12725
C         50.10781        45.88245        -0.52918
C         48.89094        46.60907        -0.33074
C         50.13550        48.74103        -0.64702
C         48.90772        48.05024        -0.44682
C         50.15078        50.17547        -0.68658
C         48.94360        50.91172        -0.50280
C         50.19131        52.99126        -0.59414
C         48.96800        52.32941        -0.45527
C         51.40948        20.92805         1.11783
C         52.70545        23.05972         1.04683
C         51.44775        22.33990         1.08216
C         52.70468        24.47628         0.98883
C         51.45832        25.19640         1.03284
C         52.70979        27.34149         0.91114
C         51.45872        26.61627         1.06987
C         52.71958        28.73938         0.80475
C         51.55766        29.55638         1.31550
C         52.58157        31.51938        -0.02483
C         51.36723        30.83634         0.51233
C         52.54878        32.97567        -0.15454
C         51.48451        33.78507         0.53061
C         52.50969        35.81217        -0.52215
C         51.36081        35.17855        -0.05479
C         52.47404        37.21891        -0.95268
C         51.18294        37.99201        -0.73105
C         52.47662        40.12387        -0.92311
C         51.25781        39.45703        -0.64681
C         52.49803        41.55553        -0.93778
C         51.28881        42.29090        -0.70609
C         52.52339        44.41750        -0.98562
C         51.30035        43.72000        -0.71812
C         52.53703        45.84283        -1.01680
C         51.32651        46.57912        -0.79994
C         52.57162        48.70688        -1.08113
C         51.34572        48.00492        -0.83258
C         52.59387        50.12915        -1.10436
C         51.37587        50.87803        -0.87463
C         51.36962        52.28426        -0.82140
C         55.14511        23.06503         0.96939
C         53.94966        22.37978         1.04496
C         55.17963        24.47885         0.87503
C         53.94380        25.18624         0.88823
C         55.15850        27.31775         0.60541
C         53.93671        26.61524         0.78109
C         55.14621        28.72865         0.40387
C         53.90755        29.43304         0.44170
C         55.07317        31.49286        -0.19038
C         53.88458        30.82092         0.08605
C         55.05522        32.86863        -0.71465
C         53.69749        33.65476        -0.68872
C         54.95983        35.79075        -0.95184
C         53.76065        35.12140        -0.68157
C         54.95698        37.24431        -1.07920
C         53.73799        37.96861        -1.03324
C         54.94199        40.09199        -1.29617
C         53.71256        39.38472        -1.11196
C         54.94328        41.52529        -1.34541
C         53.72472        42.25235        -1.16795
C         54.95536        44.38344        -1.43447
C         53.73331        43.68404        -1.19940
C         54.96312        45.81260        -1.48059
C         53.75852        46.54011        -1.27250
C         54.99006        48.67145        -1.57066
C         53.77691        47.97335        -1.30854
C         54.97573        50.08679        -1.59615
C         53.81365        50.79335        -1.36681
C         57.68977        24.53722         0.79526
C         56.42971        25.20091         0.76384
C         57.63032        27.33810         0.45865
C         56.40762        26.61100         0.60703
C         57.61910        28.75427         0.25993
C         56.36616        29.44655         0.20786
C         57.55676        31.57494        -0.22626
C         56.33685        30.84014        -0.04947
C         57.52027        32.99229        -0.48801
C         56.27823        33.66940        -0.67913
C         57.44876        35.76574        -1.09901
C         56.22151        35.06089        -0.93518
C         57.39736        37.17215        -1.54143
C         56.15871        37.95049        -1.33743
C         57.41480        40.08437        -1.61802
C         56.16653        39.36211        -1.43747
C         57.40516        41.51100        -1.68329
C         56.16909        42.23200        -1.55407
C         57.40043        44.36151        -1.84333
C         56.17280        43.65354        -1.61030
C         57.39858        45.78718        -1.92470
C         56.18664        46.51757        -1.73650
C         57.43644        48.60430        -2.06975
C         56.20914        47.93597        -1.79649
C         58.87185        25.23442         0.67472
C         60.08106        27.38191         0.35759
C         58.87130        26.64524         0.49815
C         60.06239        28.74571         0.17162
C         58.83598        29.47070         0.10810
C         59.99716        31.66103        -0.24688
C         58.80029        30.89915        -0.11702
C         59.96646        33.01505        -0.48109
C         58.73555        33.72017        -0.61616
C         59.90849        35.90137        -0.97414
C         58.68889        35.12175        -0.93218
C         59.92508        37.22311        -1.26797
C         58.70592        37.92571        -1.69126
C         59.85370        40.12453        -1.81321
C         58.65448        39.40385        -1.68298
C         59.84379        41.50291        -1.91645
C         58.62978        42.22013        -1.86511
C         59.82019        44.38239        -2.25044
C         58.62356        43.65871        -1.98743
C         59.81760        45.75407        -2.35296
C         58.61247        46.48465        -2.18111
C         58.60361        47.90321        -2.25980
O         47.34675        41.90617         1.71917
O         45.64851        36.83888         2.73044
O         51.61573        30.72770        -0.91734
O         43.26095        22.35173         2.42955
O         38.81517        34.37934         2.78209
O         44.34648        33.60599        -0.02299
O         36.90907        22.62020         1.48042
O         58.02686        37.35760        -2.86264
O         36.90459        30.46977        -1.33110
O         39.48186        52.59393        -1.32180
O         35.54556        37.75886         2.39430
O         43.44895        35.48517         3.11261
O         44.18051        48.47451        -1.39622
O         49.53238        29.17569         2.65263
O         44.82431        50.49823         1.42784
O         54.25637        33.04523        -1.90855
O         51.55255        37.47341        -2.06568
O         26.34334        29.43606        -3.25782
O         28.89005        43.02011         1.98015
O         42.80374        32.16214         2.87464
O         34.52436        38.04415        -1.11088
H         33.80314        38.45960        -1.62914
O         31.33452        26.58868         0.93461
H         32.05414        26.05963         1.34204
O         28.47622        25.13949        -3.96807
H         29.34516        24.76862        -4.23124
O         31.37671        35.06354         2.10103
H         31.41039        35.96205         2.49388
O         46.59638        47.20571         1.69665
H         46.64604        46.43088         2.29494
O         27.40658        31.20384         0.59833
H         28.02410        31.47899         1.30837
O         41.61363        48.13327         2.44143
H         41.74882        49.06711         2.71057
O         47.17692        40.30021        -1.53510
H         47.24273        39.40870        -1.93843
O         42.54067        24.73902         2.90481
H         42.95083        23.95520         3.34349
O         51.95517        29.96736         2.64944
H         51.14850        29.90616         3.21651
O         27.03430        42.57365        -1.82301
H         26.90393        41.68147        -2.21103
O         31.50146        48.09007         2.88445
H         30.69492        47.58856         3.13059
O         47.88852        53.43328         1.33758
H         47.03884        53.81243         1.64836
O         37.55390        40.33860         3.07600
H         37.36846        39.42385         3.38233
O         35.58933        53.36369         2.68691
H         36.41462        53.88323         2.79072
O         41.42568        38.30667         3.34218
H         41.64730        37.43447         3.73614
O         41.81844        18.39690        -2.04022
H         42.62022        17.89046        -2.29426
O         46.45324        47.51701        -1.93943
H         45.53354        47.61669        -2.28784
O         51.94307        33.97311         1.93169
H         51.22412        34.43517         2.41404
O         27.36347        31.84707        -2.98455
H         26.94027        31.33004        -3.70733
H         22.31858        26.90340        -1.51192
H         22.24247        29.34603        -1.36687
H         22.17442        31.25871        -1.57569
H         22.11529        33.65260        -1.17886
H         22.08562        35.51837        -0.89217
H         22.05910        37.92933        -0.64346
H         22.04743        39.81775        -0.43242
H         22.05783        42.24293        -0.33067
H         22.10363        44.12826        -0.65476
H         22.10386        46.58484        -0.54311
H         25.75081        23.61582        -2.15502
H         23.60688        24.77525        -1.74993
H         25.39004        49.95280         0.18012
H         23.30380        48.72218        -0.20656
H         27.40157        22.74392        -2.84067
H         27.03119        50.87274         0.33900
H         29.37942        21.50966        -2.22380
H         29.12620        52.06311         0.65711
H         33.03324        19.32464        -1.59542
H         30.99810        20.55791        -2.02208
H         32.82613        54.16906         1.41432
H         30.70208        52.95837         1.32237
H         34.64602        18.37838        -1.44895
H         34.38937        55.12808         0.63994
H         36.70978        17.14921        -1.12941
H         36.41908        56.24336        -0.07005
H         40.37011        14.93654        -0.49551
H         38.25645        16.17056        -0.68110
H         40.24718        58.43753        -0.12468
H         38.11421        57.23518         0.06504
H         42.83802        14.91831        -0.31915
H         42.73033        58.42612        -0.33231
H         44.95766        16.12063        -0.04385
H         44.84904        57.19414        -0.49689
H         48.64311        18.22942         0.70246
H         46.57562        17.03182         0.30344
H         48.50714        54.96724        -1.16486
H         46.36913        56.12051        -1.24683
H         50.23712        19.14462         1.09800
H         50.23687        54.08591        -0.51413
H         52.34022        20.34833         1.16429
H         52.30297        52.85117        -0.93129
H         56.07950        22.48870         0.96951
H         53.98033        21.28402         1.10218
H         55.89626        50.64865        -1.79780
H         53.85278        51.88951        -1.39896
H         57.73257        23.44760         0.92473
H         57.46606        49.69957        -2.13121
H         59.83246        24.70030         0.70782
H         61.03974        26.84448         0.39449
H         61.01853        29.27430         0.06163
H         60.97382        31.16707        -0.16142
H         60.92070        33.54749        -0.58392
H         60.85192        35.42400        -0.67823
H         60.86279        37.78491        -1.15720
H         60.81228        39.59367        -1.87732
H         60.79977        42.02511        -2.04330
H         60.76970        43.84939        -2.38601
H         60.75007        46.29772        -2.56146
H         59.54352        48.43441        -2.46720
