         480
 CSIRO Nanostructure Databank - Neutral Graphene Oxide Data Set
C         39.22395        50.69429        -4.67546
C         38.07241        51.41010        -5.00405
C         39.12497        53.43395        -4.21096
C         38.02313        52.78435        -4.76008
C         41.27835        49.15180        -3.21643
C         41.57028        50.51374        -3.79914
C         40.32797        51.32810        -4.09019
C         41.48010        53.41187        -3.33546
C         40.29884        52.72645        -3.87214
C         41.44141        54.82542        -3.06305
C         43.53175        49.06535        -2.25474
C         42.24096        48.46432        -2.57332
C         43.63065        50.51676        -2.35856
C         42.60870        51.24030        -2.96923
C         43.82101        53.36095        -2.47496
C         42.60264        52.67304        -2.94247
C         43.78666        54.88134        -2.30794
C         42.48203        55.51045        -2.50987
C         45.50158        46.11512        -1.11715
C         44.56368        46.85876        -1.75689
C         45.87725        48.96483        -1.36818
C         44.57371        48.30736        -1.75183
C         45.77606        50.44515        -1.09469
C         44.74339        51.19582        -1.70630
C         45.86392        53.27648        -1.00405
C         44.82259        52.60457        -1.70491
C         45.87792        54.72052        -0.90839
C         44.82984        55.51095        -1.45943
C         45.87550        57.52654        -0.58170
C         44.84674        56.89694        -1.28847
C         47.60197        44.57651         0.33461
C         47.64469        45.97441         0.31392
C         46.48061        46.74065        -0.19896
C         47.80669        48.89383         0.28527
C         46.59691        48.22934        -0.25704
C         47.84329        50.28020         0.25779
C         46.82141        51.08246        -0.40173
C         47.95285        53.19672         0.32583
C         46.86389        52.51329        -0.33136
C         48.00925        54.59062         0.33421
C         46.94267        55.36956        -0.21251
C         47.97678        57.43374         0.77071
C         46.92979        56.78896        -0.03527
C         47.90828        58.84154         1.06265
C         49.93531        44.44732         1.03489
C         48.72198        43.82795         0.68412
C         49.97399        45.88333         1.13522
C         48.82511        46.64766         0.74516
C         50.06516        48.70682         1.27619
C         48.88624        48.08657         0.81039
C         50.04467        50.14839         1.56150
C         48.87048        50.97270         1.03943
C         50.10915        53.03169         1.55595
C         49.02331        52.42993         0.94607
C         50.00811        54.50392         1.89117
C         49.27358        55.28450         0.80077
C         50.02499        57.33841         2.21836
C         49.05339        56.70629         1.24042
C         50.16562        58.82337         1.98876
C         49.00390        59.51210         1.57644
C         52.39811        41.60318         0.86492
C         51.19919        42.32255         0.78766
C         52.32544        44.25320         1.82026
C         51.13239        43.65256         1.19087
C         52.29754        45.75281         2.06540
C         51.16474        46.55034         1.55126
C         52.46075        48.64735         2.00349
C         51.23172        47.95858         1.59650
C         52.47514        50.11268         2.08767
C         51.29832        50.85846         1.84480
C         52.46768        52.97447         2.30517
C         51.27655        52.27485         1.94629
C         52.46337        54.41232         2.45200
C         51.32403        55.17144         2.22457
C         52.51709        57.29522         2.66204
C         51.33577        56.59892         2.35394
C         52.55139        58.74266         2.66973
C         51.37744        59.49379         2.32675
C         52.63899        61.56499         2.59276
C         51.46195        60.91260         2.29152
C         54.89472        40.10774         0.95028
C         54.85235        41.50220         1.04573
C         53.61018        42.21402         1.22749
C         54.87041        44.24382         1.80813
C         53.64031        43.57962         1.66327
C         54.91083        45.64167         2.32252
C         53.59710        46.43879         2.35795
C         54.85444        48.57002         2.70082
C         53.60549        47.91416         2.27137
C         54.87646        50.08333         2.79701
C         53.65457        50.82690         2.42819
C         54.93216        52.95359         2.69016
C         53.66821        52.23710         2.49922
C         54.95148        54.33622         2.82090
C         53.66412        55.07009         3.08236
C         54.96383        57.20390         3.05578
C         53.74440        56.56293         2.87894
C         55.00410        58.68216         3.40186
C         53.75257        59.43364         2.97656
C         55.09302        61.54797         3.31869
C         53.79545        60.83648         2.94607
C         55.11611        63.00185         2.94601
C         57.26018        40.11023         0.34379
C         56.10373        39.43421         0.70928
C         57.19311        41.61265         0.13194
C         56.06587        42.26506         0.92696
C         57.30082        44.40955         1.06669
C         56.07543        43.59515         1.32630
C         57.48641        45.68696         1.83731
C         56.23801        46.37554         2.40763
C         57.25744        48.62950         2.88954
C         56.15267        47.85374         2.62212
C         57.37077        50.06570         2.72431
C         56.16393        50.80364         2.71381
C         57.42343        52.88731         2.68959
C         56.17221        52.20970         2.66811
C         57.42742        54.31688         2.77538
C         56.19264        55.05961         2.88478
C         57.47030        57.21781         2.98531
C         56.19487        56.45905         3.05406
C         57.38313        58.63767         2.53691
C         56.24059        59.38236         2.87111
C         57.29135        61.41646         2.00310
C         56.24091        60.77660         2.70713
C         57.24424        62.83663         1.71905
C         56.11034        63.57413         2.22730
C         59.77551        37.31609        -0.12083
C         58.55611        38.01208         0.06158
C         59.67719        40.17351        -0.31040
C         58.46961        39.39957         0.03541
C         59.70131        41.62537         0.00016
C         58.54391        42.29924         0.24949
C         59.82951        44.48601         0.49237
C         58.52423        43.77342         0.42810
C         59.86670        45.80197         0.85400
C         58.72711        46.43767         1.49751
C         59.93402        48.63856         1.48670
C         59.00628        47.65068         2.07236
C         59.85142        50.06824         1.93705
C         58.62202        50.71565         2.51104
C         59.90266        52.83459         2.53107
C         58.64226        52.13705         2.54013
C         59.82903        54.18097         2.92345
C         58.66824        54.97377         2.85828
C         59.80827        57.09560         1.93475
C         58.76582        56.46628         2.84592
C         59.59828        58.47619         1.37809
C         58.44818        59.27656         1.86433
C         59.32508        61.20369         0.50649
C         58.37285        60.63527         1.53101
C         59.39094        62.70718         0.47728
C         58.28299        63.45819         0.98403
C         59.11811        65.45373        -0.15729
C         58.24339        64.87819         0.70049
C         62.20705        35.87125        -0.85582
C         62.23380        37.23462        -0.50095
C         60.98431        37.95914        -0.29959
C         62.26302        40.15418        -0.14143
C         61.00090        39.43057        -0.43274
C         62.27678        41.51482        -0.03005
C         61.01974        42.31207        -0.16947
C         62.38295        44.47849         0.32110
C         61.07723        43.78945         0.08739
C         62.39943        45.82981         0.56488
C         61.18800        46.49871         1.14668
C         62.45980        48.62132         1.36715
C         61.18129        48.00487         0.84995
C         62.39419        49.97658         1.94227
C         61.14172        50.80813         1.94793
C         62.46225        52.94448         2.05213
C         61.16981        52.16160         2.23738
C         62.38094        54.35731         1.50320
C         61.55795        55.29753         2.21669
C         61.96676        57.07907         0.64814
C         61.13755        56.48640         1.66686
C         61.92238        58.42929         0.39349
C         60.76695        59.20701         0.80382
C         61.90676        61.28692         0.06423
C         60.67500        60.53414         0.49872
C         61.62936        62.61639        -0.62293
C         60.41935        63.30400        -0.27523
C         61.44815        65.43481        -1.34021
C         60.21208        64.68239        -0.75340
C         61.47822        66.89516        -1.25949
C         64.61973        35.84785        -1.09901
C         63.38444        35.19208        -1.14316
C         64.67152        37.22643        -0.75612
C         63.47457        37.91282        -0.44528
C         64.73568        40.09991        -0.28813
C         63.50727        39.31000         0.14475
C         64.82857        41.49086         0.24992
C         63.53142        42.25730         0.30238
C         64.85983        44.37726         0.41404
C         63.61213        43.72941         0.25674
C         64.91917        45.81400         0.55875
C         63.66016        46.64155         0.38551
C         64.92360        48.62690         1.33377
C         63.64925        47.96088         1.15167
C         64.96495        49.94642         1.70804
C         63.73753        50.68213         2.06696
C         64.90920        52.67993         1.08651
C         63.74034        52.16999         1.86514
C         64.84786        53.83237         0.24483
C         62.94057        54.82865         0.35385
C         64.29473        56.90916        -0.32912
C         62.92546        56.23605        -0.14659
C         64.23207        58.26369        -0.62495
C         63.00847        59.04874        -0.35564
C         64.03895        61.05928        -1.33147
C         62.94630        60.39996        -0.59420
C         63.93195        62.52872        -1.63553
C         62.71597        63.28761        -1.20837
C         63.93729        65.44113        -1.44992
C         62.72387        64.70829        -1.37949
C         63.92226        66.87321        -1.27244
C         62.65499        67.55653        -1.16030
C         67.04850        32.93082        -1.15674
C         65.90854        33.63336        -1.34960
C         67.09181        35.78324        -0.89062
C         65.88868        35.13226        -1.53660
C         67.13366        37.26466        -0.98536
C         65.96172        37.93522        -0.82650
C         67.28240        40.11215        -0.58873
C         65.97788        39.41673        -0.76726
C         67.26255        41.50604        -0.21255
C         66.10611        42.21326         0.11725
C         67.32854        44.33890         0.47420
C         66.10826        43.64235         0.36729
C         67.36870        45.73959         0.67885
C         66.12956        46.46870         0.70994
C         67.44570        48.46348         1.49963
C         66.17802        47.98446         0.75242
C         67.53674        49.99126         1.54721
C         66.24151        50.71596         1.72431
C         67.32825        52.81220         0.85405
C         66.17444        52.11005         1.26384
C         67.18444        54.27003         0.59223
C         65.84158        54.79088         0.21721
C         66.86764        56.99184        -0.59830
C         65.63436        56.23548        -0.13131
C         66.59413        58.15956        -1.56547
C         65.40091        58.99702        -1.12562
C         66.49770        61.10923        -2.01482
C         65.33027        60.32833        -1.42883
C         66.44460        62.56657        -1.50143
C         65.19566        63.30598        -2.03211
C         66.40149        65.44156        -1.64560
C         65.19792        64.75558        -1.58964
C         66.36908        66.91925        -1.68040
C         65.12613        67.60371        -1.27574
C         66.39083        69.67564        -0.87007
C         65.19808        68.98839        -0.95982
C         69.62145        31.43614        -1.08746
C         69.52475        32.84721        -0.78355
C         68.34145        33.54410        -0.90385
C         69.63418        35.72235        -0.69750
C         68.33918        35.00843        -0.67150
C         69.68400        37.14598        -1.08868
C         68.41367        37.98611        -1.34677
C         69.76004        40.03397        -0.60943
C         68.47193        39.39867        -0.75540
C         69.81916        41.50829        -0.44481
C         68.53934        42.25265        -0.23870
C         69.86008        44.33836         0.22734
C         68.61466        43.54535         0.54699
C         69.86642        45.70833         0.45370
C         68.63320        46.42683         0.72294
C         69.86516        48.55801         0.69769
C         68.68383        47.82061         0.92609
C         69.84852        50.00508         0.62900
C         68.66581        50.72914         0.93552
C         69.70637        52.82575         0.11993
C         68.57628        52.13136         0.70050
C         69.60504        54.18997        -0.29100
C         68.38884        54.98534        -0.00092
C         69.23527        56.86564        -1.32966
C         68.17626        56.26978        -0.72533
C         69.18557        58.29352        -1.74296
C         67.85388        58.98766        -1.83953
C         69.00169        61.18355        -1.67166
C         67.82596        60.45116        -1.71674
C         68.96831        62.64821        -1.67994
C         67.72901        63.34686        -1.71296
C         68.91439        65.51080        -1.67633
C         67.68337        64.75504        -1.71798
C         68.93213        66.93927        -1.63664
C         67.66220        67.70330        -1.71149
C         68.87021        69.74797        -0.97195
C         67.65403        69.08843        -1.17586
C         68.96370        70.98608        -0.26008
C         72.05494        31.57444        -1.09869
C         70.82861        30.81894        -1.21990
C         72.03899        32.86492        -0.70050
C         70.76597        33.52588        -0.21621
C         71.99613        35.75444        -0.08562
C         70.79032        35.03287        -0.41407
C         72.06099        37.11105        -0.15470
C         70.99508        37.86924        -0.81557
C         72.22004        40.06890        -0.71661
C         70.96290        39.34895        -0.69059
C         72.30826        41.38933        -0.43456
C         71.10840        42.13681         0.08789
C         72.35142        44.34712         0.31598
C         71.13189        43.64610        -0.22650
C         72.33978        45.68626         0.50958
C         71.11041        46.44337         0.43782
C         72.27850        48.61737         0.19642
C         71.09446        47.85700         0.44789
C         72.22626        49.98035         0.03705
C         71.00627        50.70250         0.18950
C         71.98021        52.76929        -0.78937
C         70.91470        52.10942        -0.12969
C         71.84410        54.07196        -1.23279
C         70.65772        54.79103        -0.99434
C         71.66872        57.08175        -0.96762
C         70.57514        56.19763        -1.53409
C         71.56065        58.43021        -0.98110
C         70.36946        59.11288        -1.44118
C         71.47470        61.30731        -1.46337
C         70.28516        60.50751        -1.52757
C         71.42468        62.66762        -1.54279
C         70.18049        63.37586        -1.62957
C         71.36024        65.56136        -1.51024
C         70.15865        64.81453        -1.61601
C         71.34962        66.94041        -1.47304
C         70.13278        67.65055        -1.54080
C         71.38520        69.83790        -1.18861
C         70.10799        69.17004        -1.63238
C         71.39362        70.98812        -0.47442
C         70.17038        71.58592        -0.01041
O         60.97787        54.82837         3.39106
O         60.39861        64.87933        -2.18512
O         57.16457        45.60794         3.25284
O         63.65308        53.97820        -0.49005
O         68.56583        58.53462        -3.06829
O         54.19544        45.88757         3.57169
O         67.13624        50.50181         2.87346
O         58.43724        57.09808         4.11289
O         69.18662        42.24694        -1.54010
O         57.52716        44.51540        -0.38521
O         63.07539        50.15514         3.24048
O         66.42792        57.13550         0.76722
O         45.79164        47.61936         0.78846
O         66.91464        67.48247        -2.94513
O         64.17368        41.70636         1.54632
O         59.37018        49.60358         0.52881
O         67.43392        35.35693         0.46797
O         59.17097        57.30719         0.59856
O         51.96180        44.81447         3.13155
O         65.03615        40.05892        -1.70928
O         63.45728        52.89144         3.12164
O         61.01885        43.25794        -1.29444
O         70.66921        37.37140        -2.16278
O         68.05502        55.10457         1.42221
O         60.26994        39.89274        -1.62017
O         54.70910        49.26409         4.00547
O         63.58706        61.54709        -2.67446
O         48.93496        50.52224         2.44273
O         44.38003        54.26045        -3.49784
O         58.43898        47.99755         3.29142
O         68.32447        38.18673        -2.78164
H         69.24980        38.20608        -3.12328
O         67.33202        47.96355         2.85075
H         67.15813        48.74472         3.43162
O         68.73098        43.13352         1.95166
H         68.84349        43.94224         2.49504
O         66.25936        62.48834        -0.05968
H         67.10050        62.18979         0.34587
O         56.80205        41.81700        -1.26629
H         56.90830        42.77994        -1.44732
O         61.35916        46.43593         2.59773
H         61.37107        45.49672         2.87776
O         71.24574        43.75907        -1.67625
H         71.09919        44.69671        -1.91996
O         62.35816        56.15453        -1.49654
H         62.86649        55.46912        -1.98228
O         66.38670        61.09251        -3.45808
H         66.45516        60.16026        -3.75494
O         71.14452        42.02609         1.53170
H         71.11428        41.07692         1.77172
O         69.98175        69.46050        -3.06734
H         69.84683        70.42692        -3.16064
O         63.56641        39.10754         1.58076
H         63.70244        39.99716         1.99357
O         63.68469        47.06334        -1.03246
H         62.79711        47.46109        -1.22112
O         58.72353        60.85359        -0.79678
H         58.70169        59.87393        -0.85967
O         46.77652        48.83855        -2.52557
H         46.39681        49.36824        -3.25821
O         55.21647        61.50092         4.76776
H         55.23165        60.54765         5.03836
O         65.23141        63.40675        -3.46244
H         64.88441        62.55817        -3.82529
O         49.39030        57.23937         3.55608
H         48.44613        57.48364         3.45014
O         66.03204        35.37719        -2.96774
H         65.17936        35.16948        -3.40310
O         66.19590        57.54147        -2.81679
H         66.98867        57.56032        -3.40663
O         66.24925        48.44562        -0.62187
H         65.47754        48.04473        -1.09362
O         49.16233        54.57284         3.06989
H         49.64881        54.18043         3.82427
O         70.72406        33.30768         1.23319
H         70.67123        32.33955         1.37905
O         53.44563        54.93701         4.54921
H         53.46787        53.97796         4.75893
O         62.57192        61.71254         1.32188
H         62.73155        60.90819         1.86116
O         61.13070        48.18108        -0.58139
H         60.49539        48.92166        -0.75050
O         70.80275        56.10444        -2.97124
H         70.65144        56.99410        -3.35643
O         42.19344        50.27134        -5.10780
H         43.00150        49.73821        -4.95213
O         50.17239        55.32551        -0.35304
H         49.71739        55.81276        -1.07200
O         55.07018        58.73596         4.86672
H         54.34093        58.18341         5.22153
H         39.26423        49.61825        -4.89471
H         37.21446        50.89582        -5.45840
H         39.06394        54.51906        -4.05593
H         37.12207        53.35890        -5.01574
H         40.30601        48.67665        -3.41053
H         40.49908        55.36781        -3.21664
H         42.04007        47.44287        -2.21990
H         42.32505        56.54395        -2.16951
H         45.48618        45.02124        -1.22403
H         43.79467        46.34306        -2.35093
H         45.84144        58.61861        -0.47939
H         44.05298        57.51487        -1.72952
H         46.67786        44.05006         0.06095
H         47.02899        59.42506         0.76227
H         48.64438        42.73320         0.67183
H         48.96661        60.60971         1.61191
H         52.40100        40.56180         0.51762
H         50.31983        41.82021         0.36345
H         52.67119        62.66213         2.55691
H         50.58003        61.51091         2.02928
H         53.99129        39.51345         1.14075
H         54.32495        63.64267         3.36231
H         56.10538        38.33934         0.79527
H         56.05147        64.65521         2.04012
H         59.74325        36.22029        -0.05078
H         57.66202        37.40827         0.26491
H         58.99082        66.50723        -0.43962
H         57.44054        65.49529         1.12379
H         61.25225        35.33493        -0.93020
H         60.53288        67.45242        -1.28923
H         63.32810        34.13133        -1.42361
H         62.64159        68.65192        -1.09100
H         66.98553        31.83238        -1.13534
H         64.97536        33.07330        -1.51318
H         66.35558        70.73083        -0.56555
H         64.27743        69.53341        -0.71158
H         68.70148        30.86688        -1.28371
H         68.04813        71.44444         0.14016
H         73.00236        31.08543        -1.36834
H         70.88266        29.75498        -1.48840
H         72.98452        33.42084        -0.62342
H         72.82568        35.20078         0.37607
H         72.91044        37.65391         0.28408
H         73.12062        39.50939        -1.00966
H         73.28275        41.89629        -0.48014
H         73.29261        43.78638         0.40804
H         73.26664        46.20493         0.79448
H         73.23548        48.09777         0.05278
H         73.15196        50.51564        -0.21177
H         72.91442        52.23451        -1.00308
H         72.66033        54.55226        -1.78912
H         72.59357        56.60842        -0.60662
H         72.39886        59.03240        -0.60270
H         72.45302        60.81343        -1.40313
H         72.37099        63.22189        -1.52899
H         72.33023        65.05156        -1.46248
H         72.30499        67.47607        -1.40259
H         72.33563        69.43822        -1.57018
H         72.34601        71.48231        -0.23286
H         70.21560        72.52216         0.56210
