         204
 CSIRO Nanostructure Databank - Neutral Graphene Oxide Data Set
C        -11.11005         0.68602        -0.21356
C         -9.91491         1.41562         0.33874
C         -8.61446         0.71474         0.02891
C         -7.40543         1.44704         0.13519
C         -6.15929         0.75347         0.07119
C         -4.92458         1.45446         0.30821
C         -3.71249         0.73956         0.41449
C         -2.51445         1.42699         1.01657
C         -1.21991         0.69570         0.78839
C          0.03202         1.41593         0.84326
C          1.26571         0.73548         0.88224
C          2.50732         1.42859         0.70005
C          3.76251         0.74183         0.70588
C          4.93237         1.44299         0.36273
C          6.25252         0.77846         0.46098
C          7.44995         1.39600        -0.07813
C          8.67702         0.71201        -0.05956
C          9.91923         1.45929        -0.18396
C         11.15963         0.72026        -0.00661
C         -9.86612         2.88145         0.01470
C         -8.66788         3.59018         0.07372
C         -7.41037         2.87888         0.21461
C         -6.18888         3.59191         0.30235
C         -4.93933         2.88869         0.44189
C         -3.72492         3.60580         0.57897
C         -2.46638         2.90435         0.72598
C         -1.25653         3.56570         0.73972
C          0.01203         2.85062         0.74770
C          1.23237         3.53535         0.60229
C          2.47945         2.84911         0.52241
C          3.69036         3.55333         0.18370
C          4.88174         2.81011        -0.00187
C          6.05945         3.45662        -0.61897
C          7.36443         2.72418        -0.67401
C          8.68714         3.53240        -0.76763
C          9.90840         2.82816        -0.35762
C         -8.63682         5.01553        -0.02592
C         -7.43335         5.72972         0.04457
C         -6.19207         5.01906         0.22211
C         -4.96816         5.73571         0.26326
C         -3.73171         5.03569         0.45978
C         -2.52054         5.75952         0.48276
C         -1.23337         5.07445         0.87590
C         -0.05006         5.67563         0.12040
C          1.22603         5.01432         0.58549
C          2.50568         5.75676         0.35718
C          3.71966         4.98641         0.05512
C          4.87193         5.69819        -0.30013
C          6.07982         4.96965        -0.73452
C          7.38267         5.68457        -0.72307
C          8.58367         4.99815        -0.70588
C         -7.40196         7.15517        -0.06405
C         -6.20381         7.86165        -0.03184
C         -4.95708         7.15496         0.12354
C         -3.72879         7.86165         0.11517
C         -2.49936         7.15388         0.26803
C         -1.24135         7.87537         0.18217
C         -0.02206         7.18582         0.18088
C          1.20927         7.87934         0.01808
C          2.44804         7.18284        -0.01486
C          3.65783         7.86045        -0.25347
C          4.88293         7.12471        -0.35499
C          6.12137         7.81771        -0.57658
C          7.32858         7.11450        -0.67196
C         -6.16229         9.29872        -0.16190
C         -4.97971         9.97950        -0.16139
C         -3.71547         9.29528        -0.03487
C         -2.50520         9.98528        -0.06113
C         -1.25226         9.30602         0.01523
C         -0.03124         9.99394        -0.13207
C          1.20322         9.31070        -0.14400
C          2.44318         9.98799        -0.33488
C          3.65018         9.29326        -0.40514
C          4.91624         9.95857        -0.59875
C          6.08711         9.25909        -0.66400
C        -11.06962        -0.63553        -0.47832
C         -9.83465        -1.40400        -0.38775
C         -8.59615        -0.67227        -0.21326
C         -7.35340        -1.36603        -0.33536
C         -6.15411        -0.63336        -0.19934
C         -4.86189        -1.29709        -0.40094
C         -3.64961        -0.63832         0.10381
C         -2.45843        -1.37920         0.25796
C         -1.25013        -0.68202         0.60866
C         -0.03475        -1.46361         0.87504
C          1.25671        -0.72139         1.10793
C          2.53800        -1.49575         1.03825
C          3.82626        -0.73151         0.94011
C          5.02099        -1.49273         0.50404
C          6.29051        -0.78561         0.55896
C          7.51545        -1.45353         0.13772
C          8.70647        -0.71536         0.04283
C          9.97201        -1.42825        -0.07184
C         11.18847        -0.63732         0.03536
C         -9.81555        -2.77884        -0.51400
C         -8.58823        -3.52595        -0.48345
C         -7.33774        -2.80892        -0.46341
C         -6.13137        -3.52898        -0.47481
C         -4.84772        -2.80632        -0.54842
C         -3.59894        -3.50871        -0.23437
C         -2.43728        -2.81541         0.06922
C         -1.18036        -3.54694         0.21499
C          0.00473        -2.89723         0.52795
C          1.26910        -3.59589         0.51281
C          2.50612        -2.91645         0.61794
C          3.72570        -3.59102         0.30986
C          4.98886        -2.85248         0.21330
C          6.22820        -3.52302        -0.15388
C          7.44268        -2.84122        -0.18695
C          8.73118        -3.53827        -0.66568
C          9.97825        -2.78303        -0.25896
C         -8.58202        -4.92774        -0.49584
C         -7.37523        -5.66887        -0.43623
C         -6.12076        -4.95884        -0.40737
C         -4.90590        -5.67827        -0.33278
C         -3.58890        -4.97410        -0.56604
C         -2.39705        -5.67872        -0.00427
C         -1.20645        -4.99567         0.15303
C          0.03273        -5.72438         0.27964
C          1.25567        -5.01670         0.33100
C          2.49024        -5.72080         0.19285
C          3.69725        -4.98674         0.10178
C          4.90755        -5.71363        -0.32502
C          6.17853        -4.95733        -0.55172
C          7.51306        -5.76081        -0.67058
C          8.62962        -4.93589        -0.11904
C         -7.36065        -7.08771        -0.46351
C         -6.16155        -7.80503        -0.40213
C         -4.91104        -7.09603        -0.28453
C         -3.70107        -7.82876        -0.13387
C         -2.47298        -7.12486         0.36651
C         -1.18706        -7.86177         0.11980
C          0.02858        -7.15248         0.16880
C          1.27311        -7.86194         0.10168
C          2.48738        -7.15020         0.08051
C          3.74030        -7.86490         0.02174
C          4.93805        -7.17602        -0.13284
C          6.21187        -7.85539        -0.04129
C          7.40268        -7.16458        -0.11895
C         -6.12089        -9.24268        -0.46105
C         -4.93754        -9.92708        -0.40355
C         -3.68314        -9.24115        -0.21082
C         -2.45651        -9.95031        -0.10641
C         -1.20607        -9.28045         0.00649
C          0.03931        -9.98178         0.00579
C          1.26186        -9.30386         0.06291
C          2.52164        -9.99481         0.11605
C          3.72643        -9.31014         0.12325
C          5.00464        -9.98122         0.22054
C          6.17724        -9.29045         0.18393
O          0.45158        -1.17240         2.24694
O          1.91974         5.57822         1.72626
O         -2.63083        -7.13134         1.85635
H         -2.60857        -8.07158         2.13808
O          3.34239        -1.22298         2.24195
O          8.05301         2.89539        -1.93622
O         -3.40571        -5.01561        -2.04045
H         -3.96241        -4.30264        -2.42423
O        -10.07026         1.35456         1.81539
H         -9.29651         1.81717         2.20313
O          5.77771         4.12021        -1.89280
O         -2.72741         1.36415         2.48824
H         -2.44194         0.47406         2.78831
O          8.73056        -3.50804        -2.10867
H          8.41005        -4.39081        -2.42811
O         -1.01944         5.35616         2.28543
H         -1.68977         4.86059         2.80065
O         -0.17366         5.31494        -1.28281
H         -0.98743         5.73492        -1.63380
O          7.73364        -5.96779        -2.10390
H          6.83308        -6.05423        -2.50328
O         -4.72365        -1.92160        -1.73187
O          5.32492        -5.24039        -1.70254
O          6.44220         0.08308         1.72596
H         12.14982        -1.16828         0.10071
H         12.09873         1.29259         0.02903
H         10.84361         3.40160        -0.26644
H          9.51812         5.57086        -0.59737
H          8.27095         7.67709        -0.75377
H          7.03809         9.79197        -0.81194
H          4.92292        11.05471        -0.69080
H          2.44100        11.08368        -0.43747
H         -0.04403        11.08464        -0.27777
H         -2.50873        11.07946        -0.17950
H         -4.97216        11.07461        -0.26562
H         -7.11322         9.84157        -0.26751
H         -8.35052         7.69829        -0.19179
H         -9.58410         5.56035        -0.15379
H        -10.81486         3.43262        -0.07465
H        -12.05659         1.24087        -0.30035
H        -11.97859        -1.16471        -0.80389
H        -10.76240        -3.32919        -0.62389
H         -9.53915        -5.46959        -0.53438
H         -8.31439        -7.63084        -0.54480
H         -7.06914        -9.78996        -0.56855
H         -4.93118       -11.02519        -0.46804
H         -2.46866       -11.04789        -0.18122
H          0.03129       -11.08124        -0.04272
H          2.52045       -11.09474         0.15719
H          5.01178       -11.07456         0.34304
H          7.13561        -9.82228         0.27646
H          8.34419        -7.72630        -0.02004
H          8.86142        -5.06544         0.95199
H         10.93856        -3.31119        -0.36179
