         424
 CSIRO Nanostructure Databank - Neutral Graphene Oxide Data Set
C          1.41103         3.43718         0.64236
C          0.18828         4.08922         0.54618
C          1.33009         6.18639         0.04579
C          0.14657         5.45677         0.26149
C          1.27321         7.64325        -0.27080
C          0.03940         8.41009        -0.05519
C          1.24735        10.55584        -0.03926
C          0.03697         9.76859        -0.04203
C          1.20371        11.99313         0.06495
C         -0.01007        12.71914         0.00139
C          1.16726        14.84819         0.15793
C         -0.02621        14.10455         0.08284
C          1.16200        16.30552         0.30617
C         -0.02512        17.00329         0.63997
C          1.16450        19.13074         0.61497
C         -0.02413        18.37745         0.77511
C          1.16709        20.57449         0.69632
C         -0.03969        21.30230         0.85062
C          1.15809        23.41966         0.72363
C         -0.04523        22.68071         0.84038
C          1.14715        24.85881         0.64035
C         -0.06795        25.58362         0.54521
C          1.13319        27.69976         0.41764
C         -0.07419        26.95610         0.42070
C          1.13738        29.13280         0.30092
C         -0.07220        29.87779         0.08272
C          1.12157        32.00102        -0.19184
C         -0.07387        31.22577        -0.19230
C          1.15113        33.34326        -0.60402
C          0.01203        34.07025        -1.07263
C          1.33615        36.08222        -1.60808
C          0.09361        35.37700        -1.50922
C          1.43002        37.38912        -2.16395
C          3.87517         3.48867         0.63072
C          2.61345         4.15066         0.44502
C          3.87430         6.24668        -0.21287
C          2.57668         5.53620         0.13682
C          3.83510         7.73244         0.06921
C          2.57484         8.44272        -0.21569
C          3.67611        10.61818         0.31774
C          2.49176         9.89827         0.01413
C          3.66845        12.03486         0.32545
C          2.42593        12.72346         0.17818
C          3.63927        14.87006         0.05464
C          2.40694        14.15248         0.14390
C          3.58791        16.32409        -0.33013
C          2.35723        17.03092         0.17169
C          3.61623        19.17699         0.23762
C          2.37793        18.44207         0.33582
C          3.62478        20.57782         0.39964
C          2.39065        21.28794         0.59391
C          3.63357        23.43591         0.65829
C          2.39586        22.71733         0.65920
C          3.62358        24.86975         0.69892
C          2.37652        25.57315         0.62526
C          3.60504        27.71727         0.59317
C          2.37106        26.99930         0.54670
C          3.59288        29.13870         0.49755
C          2.36305        29.82239         0.35386
C          3.63300        31.85033        -0.27479
C          2.36112        31.33439         0.40337
C          3.67675        33.35318        -0.25577
C          2.42599        34.10445        -0.54170
C          3.77295        36.03936        -1.39574
C          2.53005        35.43394        -1.19083
C          3.86540        37.35057        -1.95472
C          2.65293        38.01083        -2.31850
C          6.31774         3.47026         1.11203
C          5.06480         4.19303         0.66408
C          6.26920         6.35048         0.58237
C          5.09788         5.58822         0.38181
C          6.24095         7.75381         0.56424
C          4.98042         8.42902         0.40454
C          6.21882        10.69542         0.69219
C          4.90339         9.88910         0.64812
C          6.14693        12.12110         0.35584
C          4.90539        12.77860         0.32172
C          6.10406        14.93132        -0.04508
C          4.86352        14.20356         0.10754
C          6.09238        16.35801        -0.11278
C          4.86710        17.06823        -0.06033
C          6.10025        19.19368         0.02787
C          4.85880        18.46844         0.05067
C          6.09135        20.61556         0.19241
C          4.86529        21.30626         0.37008
C          6.11341        23.42385         0.61267
C          4.87014        22.72346         0.55570
C          6.10225        24.84497         1.12043
C          4.83768        25.60018         0.79051
C          6.08292        27.75273         0.88274
C          4.84058        27.00786         0.76437
C          6.07918        29.13771         0.79457
C          4.85638        29.85967         0.55880
C          6.08801        32.01850         0.47542
C          4.89181        31.23062         0.29511
C          6.16372        33.32385         0.05517
C          4.99908        33.91910        -0.63945
C          6.30248        36.04492        -1.05851
C          5.03293        35.30089        -1.16251
C          6.34146        37.35357        -1.70591
C          5.13756        37.94928        -2.14711
C          8.59857         3.55762         0.10057
C          7.55101         4.19974         0.66042
C          8.74324         6.40753         0.36392
C          7.57353         5.67097         0.98569
C          8.72649         7.80035         0.35300
C          7.51393         8.52188         0.89430
C          8.61071        10.66219         0.06703
C          7.46989         9.97277         0.47912
C          8.59384        12.11979        -0.02976
C          7.36529        12.81734         0.07627
C          8.55810        14.96033        -0.29405
C          7.33523        14.24235        -0.07687
C          8.53401        16.36246        -0.42123
C          7.32448        17.07479        -0.23864
C          8.56534        19.23567        -0.24177
C          7.31851        18.50467        -0.17918
C          8.53714        20.65252        -0.06751
C          7.32971        21.33949         0.15143
C          8.58764        23.48883         0.43476
C          7.32250        22.76593         0.38135
C          8.58047        24.91692         0.67986
C          7.36405        25.61208         0.82498
C          8.57191        27.73032         1.04078
C          7.35455        27.02393         0.93649
C          8.51141        29.17261         1.50228
C          7.38613        29.92097         0.75165
C          8.52133        32.19735         1.42968
C          7.18420        31.34994         1.29661
C          8.60109        33.47559         0.57848
C          7.29995        34.24514         0.45276
C          8.64742        36.25990        -0.42349
C          7.38072        35.50422        -0.41200
C          8.76936        37.40569        -1.35643
C          7.58774        37.98035        -1.88121
C         10.94659         3.53645        -0.61445
C          9.82201         4.24686        -0.26297
C         10.98870         6.41074        -0.61856
C          9.85279         5.69891        -0.17546
C         11.00581         7.81646        -0.60401
C          9.84084         8.53501        -0.16801
C         10.92974        10.72225        -0.90568
C          9.80400         9.94261        -0.27087
C         11.10943        12.04380        -0.13510
C          9.81252        12.84482        -0.18011
C         11.04039        15.00588        -0.45765
C          9.80511        14.23866        -0.31500
C         11.03446        16.35228        -0.67743
C          9.74620        17.10762        -0.91626
C         11.04381        19.25029        -0.35163
C          9.78591        18.55191        -0.45067
C         11.05367        20.66018        -0.13596
C          9.78360        21.43523        -0.37059
C         11.04497        23.52030         0.30528
C          9.78949        22.83304         0.19108
C         11.04613        24.93396         0.57321
C          9.81254        25.63723         0.69905
C         11.04610        27.77203         1.03382
C          9.80589        27.05122         0.92955
C         11.05139        29.20449         1.22783
C          9.81402        29.92708         1.34858
C         11.01396        32.03358         1.21308
C          9.80230        31.34437         1.27909
C         11.03719        33.47263         0.93038
C          9.79387        34.11878         0.44796
C         11.19814        36.01652        -0.53649
C          9.91060        35.54040         0.01352
C         11.23054        37.19099        -1.34397
C         10.03299        37.88147        -1.69961
C         13.38412         3.55192        -0.73035
C         12.20197         4.20801        -0.84789
C         13.43862         6.40078        -1.17970
C         12.12949         5.65670        -1.26424
C         13.41018         7.80554        -1.21487
C         12.20787         8.54383        -0.97594
C         13.45086        10.67046        -1.19741
C         12.22726         9.95332        -1.02444
C         13.43085        12.18135        -1.31446
C         12.27717        12.82982        -0.61625
C         13.57759        14.98710        -0.62792
C         12.33425        14.25886        -0.19401
C         13.57381        16.38304        -0.67968
C         12.29575        17.12781        -0.97741
C         13.50561        19.25289        -0.38206
C         12.27605        18.55036        -0.45841
C         13.49347        20.66234        -0.16062
C         12.27284        21.36567        -0.02967
C         13.50258        23.52115         0.35228
C         12.26657        22.81703         0.17406
C         13.50160        24.93133         0.63053
C         12.27142        25.64218         0.71113
C         13.51381        27.76089         1.04907
C         12.27015        27.06416         0.93719
C         13.52320        29.18486         1.25166
C         12.28585        29.88564         1.34147
C         13.55936        32.05315         1.24545
C         12.27683        31.36587         1.67610
C         13.60489        33.30931         0.71551
C         12.36719        34.12426         0.61074
C         13.62652        35.77329        -0.77867
C         12.38960        35.32375        -0.25807
C         13.63583        36.89379        -1.64977
C         12.46827        37.59586        -1.90600
C         15.89519         3.50931        -1.03201
C         14.68534         4.28540        -0.61661
C         15.89744         6.34180        -1.37316
C         14.66211         5.69167        -1.17451
C         15.92133         7.77048        -1.75210
C         14.63328         8.54095        -1.56465
C         15.94852        10.67683        -1.32262
C         14.66669         9.99959        -1.37157
C         15.94550        12.10601        -1.10679
C         14.76340        12.82927        -0.97040
C         16.04274        14.95310        -0.71917
C         14.78285        14.24644        -0.76655
C         16.04121        16.39759        -0.57586
C         14.80082        17.12639        -0.66908
C         16.00374        19.29956        -0.44988
C         14.75518        18.54044        -0.57075
C         15.97759        20.67995        -0.01587
C         14.75837        21.46548        -0.34777
C         15.95806        23.49065         0.55875
C         14.73579        22.83379         0.27228
C         15.96420        24.90675         0.78760
C         14.73582        25.62299         0.79474
C         15.98281        27.72719         1.12948
C         14.74088        27.04377         0.98938
C         15.99055        29.15431         1.26775
C         14.77360        29.86332         1.32745
C         16.08605        32.01065         1.17827
C         14.82167        31.34037         1.64717
C         16.10926        33.36866         0.76375
C         14.86277        33.97293         0.39015
C         16.13204        35.79512        -0.64581
C         14.87583        35.15993        -0.34960
C         16.14770        36.86083        -1.60817
C         14.90509        37.24817        -2.37249
C         18.35482         3.46588        -1.19711
C         17.09565         4.17740        -1.17137
C         18.36557         6.32207        -1.19444
C         17.11533         5.62322        -1.25244
C         18.40668         7.74283        -1.22059
C         17.25306         8.52409        -1.81363
C         18.41503        10.62879        -1.02009
C         17.16528         9.96688        -1.33724
C         18.45819        12.03671        -0.86024
C         17.25326        12.83535        -1.28344
C         18.56068        14.97325        -0.77928
C         17.23878        14.25422        -0.79112
C         18.47612        16.34241        -0.15524
C         17.25781        17.04433        -0.27349
C         18.43038        19.16998         0.46864
C         17.31455        18.51408        -0.21397
C         18.41903        20.54004         0.67252
C         17.09679        21.26660         0.77456
C         18.39101        23.40718         0.97539
C         17.18194        22.76285         0.67829
C         18.41962        24.84365         1.09110
C         17.19943        25.58121         1.00646
C         18.44866        27.69040         1.33674
C         17.20909        27.00333         1.15621
C         18.46659        29.12172         1.40484
C         17.24678        29.84840         1.34443
C         18.52585        31.98876         1.27794
C         17.28117        31.27950         1.25579
C         18.52814        33.41436         1.15476
C         17.33704        34.09809         0.67017
C         18.51917        36.21328        -0.19510
C         17.34013        35.37521        -0.00406
C         18.51948        37.21491        -1.21557
C         17.32533        37.48295        -1.94268
C         19.53337         4.13852        -1.07563
C         20.76814         6.26787        -0.75251
C         19.56512         5.57600        -1.00146
C         20.77464         7.64819        -0.65683
C         19.60339         8.41159        -0.91018
C         20.79397        10.54579        -0.46198
C         19.61095         9.86916        -0.81521
C         20.81422        11.91480        -0.26618
C         19.64627        12.69180        -0.45623
C         20.75335        14.75363         0.37742
C         19.68318        14.12531        -0.23124
C         20.75363        16.14316         0.64559
C         19.63187        16.93760         0.40663
C         20.85428        19.11245         0.95349
C         19.56542        18.33116         1.00471
C         20.85372        20.46451         1.00932
C         19.62427        21.23661         1.00840
C         20.80710        23.36910         1.44965
C         19.61558        22.64881         1.15485
C         20.82408        24.74309         1.52788
C         19.64414        25.51723         1.34524
C         20.87646        27.67736         1.59091
C         19.66705        26.95811         1.42991
C         20.89439        29.06077         1.64190
C         19.70596        29.81705         1.54483
C         20.89999        31.98568         1.86209
C         19.72694        31.26826         1.55672
C         20.87128        33.37536         1.93052
C         19.71046        34.06953         1.57485
C         20.78814        37.00800         0.39746
C         19.67998        36.19669         0.62541
C         20.79619        37.90154        -0.68638
C         19.66593        38.01001        -1.47462
O          3.03628        34.06412         0.84111
O         19.72586        35.44426         1.80425
O          5.15583        34.10628        -2.09384
O          5.50185        10.30492         1.92948
O          8.53129        32.75247         2.73031
O         15.10673         8.09698        -2.92917
O          9.24221        36.49803         0.89706
O          1.97983         8.01150        -1.50918
O         17.01153        19.08353        -1.52377
O         11.74856        34.29982         1.93086
O          3.56047        31.46665        -1.67640
H          4.26980        31.94684        -2.15824
O          7.77677        30.05242        -0.63704
H          7.78798        29.15818        -1.03856
O         11.36687        11.66015         1.25012
H         11.69295        12.46931         1.71245
O         16.71085        21.02806         2.21314
H         17.24816        21.64390         2.75777
O          6.09252        24.70484         2.59351
H          6.15424        25.60797         2.97319
O          9.74465        21.63549        -1.84649
H          9.65849        20.74525        -2.25224
O          2.39348        31.66472         1.81206
H          2.51016        32.64486         1.88148
O         14.90686        31.41530         3.11639
H         13.97842        31.32413         3.45891
O          6.64722        31.21907         2.62844
H          7.15218        31.92056         3.15125
O         19.27162        18.10093         2.43302
H         19.15683        18.98137         2.85037
O          9.57479        17.19567        -2.37952
H         10.48180        17.28374        -2.76498
O         18.91445        15.20040        -2.20099
H         18.66878        14.36969        -2.68242
O         17.60471         8.63099        -3.23195
H         16.74913         8.68631        -3.72021
O          7.62067         8.53445         2.37021
H          6.87056         9.09838         2.68416
O         10.50173        11.10152        -2.24482
H         10.44923        10.29134        -2.79289
O         14.85747         4.48071         0.85328
H         15.76302         4.83173         0.99535
O         17.40729        12.96125        -2.77469
H         16.59278        13.39933        -3.10620
O         12.30395        17.28621        -2.45828
H         13.11918        17.78282        -2.69033
O         11.81191         5.61318        -2.70168
H         11.93957         6.51660        -3.06137
O          3.46090        16.31946        -1.80796
H          3.45841        17.25574        -2.10121
O         12.22677        31.45000         3.15656
H         11.83289        32.32516         3.37665
O         14.93571        38.63323        -2.72904
H         14.93251        39.16097        -1.90443
O         14.82788        21.72641        -1.81651
H         13.99848        22.18880        -2.06550
O         12.42930        14.22704         1.30254
H         12.43254        15.15819         1.61409
O          6.99160        34.70098         1.79920
H          7.53277        34.12256         2.42118
O         13.26671        12.46082        -2.76204
H         13.92773        11.91469        -3.23869
O          7.68083         5.77000         2.43376
H          7.72362         6.73661         2.65757
O          8.19189        29.09700         2.91423
H          7.61972        29.88282         3.13262
O          4.00895         6.12846        -1.68000
H          3.27487         6.67344        -2.05849
O          6.29869         2.11243         0.67202
H          6.20627         2.10704        -0.30256
H          1.45369         2.36427         0.87738
H         -0.74856         3.53550         0.69668
H         -0.83041         5.95220         0.18834
H         -0.90787         7.87455         0.09519
H         -0.92565        10.28376         0.07823
H         -0.96605        12.19056        -0.10755
H         -0.99539        14.62067         0.05201
H         -0.96476        16.45477         0.78883
H         -0.96874        18.88017         1.01986
H         -0.99669        20.77405         0.94817
H         -1.00681        23.20135         0.93416
H         -1.02925        25.05400         0.54780
H         -1.04011        27.47033         0.33499
H         -1.03382        29.34783         0.06221
H         -1.03127        31.70617        -0.44162
H         -0.97096        33.57853        -1.08126
H         -0.82124        35.88753        -1.84438
H          0.50889        37.90217        -2.47661
H          3.88153         2.41461         0.86777
H          2.70555        39.02292        -2.74540
H          6.32532         3.44925         2.23695
H          5.18540        38.94451        -2.61465
H          8.54801         2.46868        -0.05556
H          7.65323        38.91479        -2.45866
H         10.93212         2.43665        -0.57186
H         10.11305        38.75260        -2.36718
H         13.38609         2.48201        -0.46761
H         12.50131        38.46829        -2.57476
H         15.87704         2.41068        -0.97429
H         14.90942        36.67603        -3.34550
H         18.33505         2.36707        -1.22901
H         17.32854        38.25995        -2.72064
H         20.48512         3.59044        -1.01801
H         21.69789         5.70038        -0.60343
H         21.72317         8.14746        -0.42220
H         21.73076         9.99202        -0.32277
H         21.76167        12.39560         0.00838
H         21.61612        14.17153         0.73026
H         21.62911        16.56948         1.15411
H         21.81167        18.57207         0.96839
H         21.81682        20.99355         1.03100
H         21.74447        22.82385         1.62034
H         21.77568        25.24050         1.75649
H         21.83244        27.14188         1.65779
H         21.86363        29.56671         1.74305
H         21.82857        31.45981         2.11850
H         21.75273        33.93781         2.26371
H         21.64030        36.95587         1.08698
H         21.67512        38.53247        -0.87506
H         19.62296        38.74520        -2.29017
