         260
 CSIRO Nanostructure Databank - Neutral Graphene Oxide Data Set
C         30.45694        32.10399        -0.83628
C         30.44266        33.29616        -0.49157
C         30.28382        36.10586         0.72471
C         30.26331        37.20501         0.17452
C         30.22603        40.41528        -0.23043
C         30.28267        41.63167         0.04525
C         32.75404        29.16625        -0.86777
C         31.69419        29.83057        -1.05843
C         32.69925        31.78899        -0.04724
C         31.50943        31.16206        -0.67101
C         32.74236        33.13944         0.27053
C         31.60435        34.13951        -0.10489
C         32.66717        36.05251         1.00695
C         31.38331        35.13689         1.04334
C         32.65699        37.42004         0.38543
C         31.39567        38.06047        -0.18207
C         32.66546        40.35047        -0.12457
C         31.40400        39.56253        -0.36293
C         32.65840        41.73400         0.00743
C         31.39871        42.50119         0.07268
C         32.67975        44.45039         0.11203
C         31.54200        43.90128         0.12338
C         35.38556        27.41742        -0.43497
C         35.18585        28.81794        -0.21352
C         33.99869        29.53600        -0.34473
C         35.22855        31.57311         0.60004
C         33.89516        30.92124         0.22669
C         35.27087        33.04775         0.89641
C         33.93898        33.77944         0.90928
C         35.29918        36.08121         1.22188
C         33.96838        35.26968         1.15535
C         35.24162        37.34115         0.33533
C         33.94968        38.06584        -0.00556
C         35.19841        40.26936         0.28774
C         33.94462        39.57525        -0.16925
C         35.17697        41.75212         0.43526
C         33.98778        42.47853        -0.17439
C         35.19113        44.67768         0.25459
C         34.00252        43.99336         0.14560
C         35.45398        46.07203         0.16405
C         37.71654        27.12981         0.06314
C         36.40732        26.71371        -0.45793
C         37.70465        28.66617         0.21813
C         36.44790        29.48003         0.07961
C         37.75008        31.61969         0.22324
C         36.47741        30.85581         0.29964
C         37.82070        33.07888         0.54776
C         36.57000        33.80793         0.88177
C         37.77202        35.95383         0.65284
C         36.58515        35.29645         0.85227
C         37.87065        37.48528         0.75974
C         36.50901        38.11806         0.20647
C         37.69701        40.33621         0.04820
C         36.49635        39.58402         0.10806
C         37.74108        41.72644         0.26360
C         36.50054        42.47302         0.56660
C         37.80214        44.71544         0.43692
C         36.49473        43.98576         0.53912
C         37.84969        46.23664         0.43306
C         36.50140        46.73423         0.09836
C         40.41387        24.66109        -0.98139
C         39.29428        25.28742        -0.80640
C         40.26340        27.08431         0.39826
C         39.00385        26.45702        -0.18238
C         40.24969        28.59416         0.53150
C         39.05377        29.31104        -0.11812
C         40.29892        31.51914         0.47550
C         39.02586        30.84427         0.05467
C         40.30094        33.02962         0.53799
C         39.00723        33.76539         0.47028
C         40.20511        35.87565         0.06553
C         39.03351        35.22926         0.41750
C         40.23863        37.33795        -0.19089
C         38.89197        38.05326        -0.27034
C         40.27040        40.30641         0.05348
C         38.97307        39.58845        -0.19487
C         40.28443        41.75969         0.34231
C         39.00573        42.52346        -0.02973
C         40.25161        44.69054         0.55219
C         38.95189        43.99237         0.40397
C         40.47569        46.16451         0.11113
C         39.13720        46.94533         0.13658
C         40.06861        48.19336        -1.72354
C         39.26875        48.07257        -0.79524
C         42.98274        24.59566        -0.64327
C         41.63419        25.00159        -0.47871
C         42.89558        27.08087         0.52952
C         41.59340        26.33125         0.31263
C         42.87111        28.58552         0.68700
C         41.55863        29.34008         0.64939
C         42.79464        31.57645         0.65602
C         41.59116        30.78775         0.13842
C         42.79366        33.04830         0.37771
C         41.56788        33.73201         0.27432
C         42.77450        35.91335        -0.26633
C         41.45151        35.10849        -0.35485
C         42.80782        37.34575         0.09905
C         41.53490        38.09326        -0.02072
C         42.74808        40.20738         0.92715
C         41.48046        39.51710         0.45955
C         42.77799        41.71583         0.81237
C         41.48661        42.38198         0.55795
C         42.69693        44.56921         0.08287
C         41.48310        43.86972         0.60500
C         42.50955        45.44649        -1.11662
C         41.26422        46.19278        -1.20391
C         42.47720        47.71663        -2.63795
C         41.06353        47.28101        -2.34358
C         44.04743        25.09499        -0.22912
C         44.80052        27.38911        -1.10777
C         44.29971        26.51813         0.13429
C         45.06461        28.83839        -0.49941
C         44.08967        29.36814         0.29197
C         45.35817        31.56912         0.58160
C         44.09308        30.80113         0.73609
C         45.31043        33.06535         0.46802
C         44.02548        33.74593         0.35034
C         45.30382        35.94824         0.26509
C         44.07127        35.17351        -0.00439
C         45.28974        37.31544         0.25029
C         44.00307        38.02186         0.26356
C         45.20785        39.88709         1.19337
C         44.00780        39.40127         0.75666
C         45.24652        42.06499         1.31403
C         43.93758        42.49530         0.85838
C         45.19359        44.30679        -0.43120
C         43.97328        43.87433         0.30110
C         45.12086        45.33204        -1.36503
C         43.82698        45.83382        -1.88211
C         43.54836        47.10100        -2.56817
C         47.21053        27.61546        -1.73823
C         46.19043        26.95462        -1.56154
C         47.60063        29.03514        -1.52065
C         46.27077        29.64682        -0.90480
C         47.78164        31.60116        -0.03957
C         46.44899        30.96991        -0.24255
C         47.81649        32.95920         0.06154
C         46.53872        33.76468        -0.23626
C         47.87227        35.91708         0.42801
C         46.57721        35.18398         0.35223
C         47.87047        37.40974         0.47385
C         46.59137        38.09268         0.03102
C         47.72970        40.39146         0.70746
C         46.50451        39.52550         0.57735
C         47.73913        41.80249         1.39963
C         46.46375        42.60109         0.98678
C         47.78912        44.56034        -0.15370
C         46.46570        43.89078         0.23726
C         47.56461        45.35852        -1.36732
C         46.44054        45.81634        -1.66389
C         50.13315        28.92279        -1.12133
C         48.77378        29.21045        -0.53980
C         50.32620        31.41914         0.08109
C         48.98465        30.71894        -0.03013
C         50.31527        32.92345         0.53932
C         49.11594        33.69641        -0.00591
C         50.40010        36.05245         0.01864
C         49.12952        35.19861         0.00917
C         50.28813        37.33897         0.86793
C         49.00617        38.11538         0.71834
C         50.24270        40.33716         1.21811
C         49.08341        39.64890         0.48533
C         50.30840        41.80768         1.13554
C         49.04951        42.54655         1.04948
C         50.39707        44.16304        -0.25985
C         49.06239        43.92988         0.30006
C         51.22380        29.52999        -1.11106
C         52.61632        31.69960        -0.59691
C         51.54176        30.80265        -0.59517
C         52.73891        32.82556        -0.04331
C         51.68266        33.73285         0.38709
C         52.80155        36.20418         0.12818
C         51.69216        35.23513         0.33479
C         52.71716        37.35876         0.56225
C         51.57443        38.07623         1.15528
C         52.66649        40.43102         1.36528
C         51.52216        39.53002         1.47298
C         52.75925        41.63502         1.13279
C         51.63631        42.63356         1.17549
C         51.47126        43.60845         0.00838
O         34.90767        40.92720         1.59366
O         40.91762        44.43045         1.83745
O         38.56656        46.97531         1.44668
O         40.31459        32.15897         1.75800
O         38.41582        31.44443        -1.12816
O         38.14675        37.88926         2.01315
O         35.99975        33.27471         2.14297
O         47.03559        45.03217         0.97868
O         43.85507        27.45189        -2.02474
O         41.77908        39.65346         1.87637
O         43.61859        35.52919        -1.39019
O         43.35237        31.16701         1.92471
O         42.96188        44.78940        -2.38074
O         43.55292        45.00890         1.17875
O         36.48583        43.25557         1.81742
O         49.13883        43.86172         1.72966
O         39.78054        40.08549        -1.32439
O         34.02760        38.67869        -1.31272
O         40.01475        27.73784         1.66825
O         32.58655        37.23246         1.84622
O         51.83306        34.55065         1.57368
O         50.63387        39.83111         2.55762
O         46.33543        33.78218        -1.58163
O         45.75176        32.40450         1.69095
O         45.22562        40.92042         2.12123
O         34.37050        30.91874         1.59612
O         46.91714        40.46625        -0.49869
O         42.28700        26.30301         1.59583
O         49.15097        34.44026        -1.25714
O         49.78259        30.62097         1.19362
O         42.22525        29.06131         1.89372
O         47.27191        35.29999         1.62875
O         50.91820        37.26400         2.17080
O         45.95865        30.86779        -1.63511
O         34.29900        42.40111        -1.62618
O         31.47117        38.62506        -1.47883
O         41.01792        37.78332        -1.36169
O         36.05858        37.24989        -0.87062
O         37.61664        27.77312         1.35549
O         33.76347        34.34446         2.25821
O         40.52404        46.68027        -3.49485
H         41.19330        46.07665        -3.88058
O         41.22818        34.79194        -1.76307
H         42.09816        34.90165        -2.22110
O         32.06106        34.91492        -1.21958
H         31.93243        34.40442        -2.04649
O         47.75018        41.58817         2.80696
H         47.96187        42.43737         3.25061
O         35.42344        36.54226         2.56778
H         35.39952        35.76093         3.16165
O         50.55207        36.55985        -1.31823
H         50.21805        35.88445        -1.95204
O         41.32487        46.80727         1.06845
H         41.50086        46.16896         1.80493
O         49.41822        39.79090        -0.90783
H         48.62548        39.52307        -1.43030
O         39.05567        42.65045        -1.49190
H         39.25390        41.74557        -1.85067
O         38.39419        37.74463        -1.58002
H         39.11175        37.95574        -2.21821
O         51.67967        43.37758         2.35172
H         52.45518        43.97414         2.33942
O         45.19611        26.71622         1.19169
H         44.82596        26.30881         2.00319
O         39.25075        29.06021        -1.53260
H         38.89932        29.83285        -2.03365
O         33.17502        43.02761        -2.31993
H         33.37400        42.79922        -3.26075
O         50.03269        32.92529         1.93552
H         50.67066        32.35262         2.40924
O         48.50987        28.43204         0.59281
H         49.16700        28.65284         1.28969
O         31.23466        34.45867         2.25056
H         31.31122        35.08802         2.99659
O         47.94665        29.72756        -2.69424
H         47.15848        29.79836        -3.27278
O         41.69574        30.69271        -1.29620
H         41.72268        31.59073        -1.68835
O         46.74138        38.16843        -1.41232
H         45.91084        38.51694        -1.79962
