         244
 CSIRO Nanostructure Databank - Neutral Graphene Oxide Data Set
C          1.41364         2.11519         1.61892
C          1.37255         3.48400         1.30419
C          2.62517         1.45125         1.72748
C          2.55487         4.23483         1.20701
C          1.27871         6.41071         0.66758
C          1.27780         7.74788         0.49546
C          2.56890         5.63498         0.60574
C          2.50636         8.53512         0.39550
C          1.23349        10.71038         0.27393
C          1.21282        12.08859         0.15261
C          2.44732         9.99089         0.17790
C          2.40310        12.82328        -0.05201
C          1.24655        15.07273         0.06675
C          1.31163        16.45780         0.06668
C          2.41132        14.27017        -0.06966
C          2.55538        17.14584         0.06067
C          2.56456        18.59824        -0.09297
C          3.84724         2.16659         1.59504
C          3.78564         3.58655         1.43264
C          5.08042         1.47071         1.45550
C          5.05046         4.34144         1.51131
C          3.73165         6.50623         1.06184
C          3.71324         7.92720         0.63277
C          5.03090         5.83737         1.37179
C          4.96769         8.78772         0.79507
C          3.63637        10.69913        -0.07503
C          3.63394        12.11075        -0.18214
C          4.90174         9.89192        -0.26769
C          4.86949        12.82215        -0.44966
C          3.65854        14.93297        -0.19933
C          3.71677        16.34155         0.00707
C          4.87288        14.21542        -0.48261
C          5.02686        16.90076         0.19361
C          3.62534        19.44779        -0.26228
C          5.00327        19.05467        -0.02179
C          6.28723         2.12899         1.09439
C          6.34135         3.60091         1.30582
C          7.37783         1.45449         0.57222
C          7.51444         4.36100         0.81710
C          6.33511         6.54531         1.08793
C          6.29204         8.00902         0.73143
C          7.51414         5.72407         0.67358
C          7.45528         8.60599         0.01960
C          6.16317        10.71378        -0.37976
C          6.10740        12.06792        -0.60434
C          7.41555         9.96231        -0.40916
C          7.27925        12.79455        -1.23252
C          6.06692        15.01851        -1.00274
C          6.16285        16.37804        -0.35277
C          7.37541        14.26765        -0.87898
C          7.39751        17.14002        -0.38372
C          6.17457        19.39245        -0.63744
C          7.40993        18.61227        -0.44478
C          8.55183         2.19892        -0.00472
C          8.76904         3.53601         0.71310
C          9.83678         1.40812         0.00636
C          9.93542         4.27596         0.11729
C          8.70309         6.41944         0.18611
C          8.66088         7.85624        -0.08025
C          9.86380         5.68937        -0.07908
C          9.86738         8.53928        -0.38961
C          8.61813        10.61938        -0.76356
C          8.60264        12.04971        -1.12939
C          9.86212         9.95390        -0.58902
C          9.87897        12.81102        -0.95009
C          8.54616        14.95795        -0.71363
C          8.56968        16.41121        -0.57784
C          9.85115        14.23546        -0.43057
C          9.87865        17.07843        -0.51269
C          8.61162        19.27946        -0.56630
C          9.90228        18.60799        -0.45929
C         11.06376         2.06188        -0.07274
C         11.08699         3.52738        -0.13889
C         12.29586         1.35312        -0.15858
C         12.32826         4.17798        -0.45395
C         11.06049         6.34109        -0.74218
C         11.12444         7.83262        -0.50009
C         12.34784         5.67835        -0.26517
C         12.33008         8.49522        -0.52831
C         11.10084        10.66851        -0.58194
C         11.12633        12.06505        -0.67580
C         12.38216         9.96356        -0.21593
C         12.34158        12.77003        -0.73932
C         11.09767        14.96320        -0.82858
C         11.07950        16.41531        -1.15573
C         12.37039        14.22739        -1.10238
C         12.38202        17.10283        -0.77671
C         11.16465        19.26579        -0.78577
C         12.37490        18.54840        -0.71101
C         13.52516         2.00326        -0.46038
C         13.47916         3.45199        -0.65438
C         14.73547         1.30541        -0.56335
C         14.73200         4.15002        -1.02818
C         13.56466         6.39841        -0.78740
C         13.58353         7.78319        -0.76084
C         14.78328         5.63925        -1.07249
C         14.79698         8.51978        -1.00075
C         13.61650        10.66986        -0.72682
C         13.57898        12.07590        -0.81898
C         14.81853         9.92896        -0.95791
C         14.79052        12.82696        -1.09752
C         13.58319        14.89625        -0.43642
C         13.57071        16.39924        -0.62098
C         14.88992        14.21575        -0.84323
C         14.79540        17.08113        -0.36016
C         13.60683        19.22194        -0.48763
C         14.79186        18.51141        -0.25540
C         16.00509         1.95593        -1.05650
C         15.98944         3.42454        -0.68400
C         17.29354         1.30564        -0.62613
C         17.26665         4.20329        -0.56827
C         16.08039         6.34495        -0.97423
C         16.05568         7.78747        -1.25887
C         17.26749         5.67539        -0.79786
C         17.39026         8.52519        -1.28530
C         16.02423        10.65317        -1.28194
C         15.89617        12.00915        -1.49158
C         17.44644        10.05378        -1.36006
C         17.69605        13.04254        -0.90437
C         16.10386        14.95560        -0.55982
C         16.01166        16.34206        -0.18360
C         17.39797        14.33943        -0.39280
C         17.16345        17.03275         0.32485
C         15.97335        19.17743         0.21202
C         17.09948        18.46321         0.57318
C         18.48980         2.03406        -0.58460
C         18.50862         3.45040        -0.67268
C         19.77608         1.35056        -0.47128
C         19.76959         4.23377        -0.90023
C         18.51435         6.39744        -0.68177
C         18.57157         7.77406        -0.80815
C         19.70210         5.59556        -0.18945
C         19.75199         8.51019        -0.35185
C         18.36184        10.64561        -0.24960
C         18.58424        12.16192        -0.30299
C         19.67659         9.89775        -0.08206
C         19.57443        12.75242         0.54926
C         18.41985        14.94599         0.38273
C         18.32796        16.32693         0.67224
C         19.54985        14.15577         0.81317
C         19.58278        17.04342         1.10526
C         18.18296        19.09417         1.29792
C         19.29622        18.40170         1.70005
C         20.95711         2.02970        -0.44550
C         21.02119         3.46930        -0.52689
C         22.17854         4.18414        -0.35543
C         21.01362         6.34811        -0.28815
C         20.96269         7.79567        -0.11008
C         22.17779         5.62481        -0.34233
C         22.08311         8.50726         0.36199
C         20.77321        10.55898         0.53100
C         20.67648        11.95381         0.98023
C         21.98380         9.84976         0.69458
C         21.66054        12.56281         1.77250
C         20.56925        14.74829         1.61889
C         20.51307        16.17640         1.92687
C         21.59444        13.91961         2.10500
C         21.32465        16.77401         2.85522
C         20.26541        18.96576         2.60407
C         21.24076        18.17880         3.14902
O          5.89341         3.96269         2.65833
O         10.10098        17.73223         0.75676
O          4.20442         6.40646         2.44364
O         14.70104         4.80489        -2.33011
O          6.69461         7.55443         2.08181
O          5.11290        18.05877         0.97616
O         16.98905        12.67587        -2.04634
O         16.78143         8.05399        -2.52962
O          9.42461        12.48697        -2.30236
O         16.45824         3.75879         0.63879
O          9.12671         3.19030         2.08395
H          9.11436         4.01157         2.61907
O         17.61632        10.43793         0.99003
H         18.15286        10.79297         1.73017
O         12.59880        14.31521        -2.55888
H         11.95524        13.71149        -2.98996
O         12.36800         5.87291         1.18715
H         13.15937         5.42015         1.54767
O         19.84332         4.52046        -2.33044
H         19.85980         3.66665        -2.81126
O         13.41830        14.67783         0.99258
H         14.16635        15.11265         1.45329
O          2.85564         5.40848        -0.81851
H          2.07025         4.97951        -1.21865
O          8.22585         2.51230        -1.40196
H          8.20534         1.67003        -1.90239
O         20.31850        17.31081        -0.14604
H         19.75007        17.88859        -0.69878
O          5.79737        15.22469        -2.42579
H          5.97921        14.35421        -2.86238
O          9.88523        14.05697         1.03358
H         10.07697        14.93115         1.43716
O         12.47992        10.05317         1.26285
H         11.69271         9.59890         1.63317
O          4.79768         9.19060        -1.54512
H          4.75346         9.86504        -2.25536
O         15.99141         1.91910        -2.53063
H         15.73829         1.01380        -2.80729
O         18.05926        10.37211        -2.61569
H         17.64134         9.79685        -3.29402
O         10.94776         6.11619        -2.16887
H         10.11679         6.53068        -2.48033
O         10.91274        16.58154        -2.61041
H         11.60677        16.01574        -3.02590
O          4.89281         9.41692         2.08527
H          5.18520         8.74240         2.74199
O          6.91866        12.77072        -2.66594
H          7.77364        12.85341        -3.15377
O         19.48111         5.31537         1.21984
H         19.43559         6.16927         1.69781
H          0.47150         1.55875         1.72182
H          0.39486         3.95947         1.14637
H          2.65160         0.36448         1.89093
H          0.32162         5.87493         0.74545
H          0.31307         8.27322         0.45954
H          0.28897        10.18605         0.47018
H          0.25356        12.61541         0.24654
H          0.25998        14.59358         0.13518
H          0.37947        17.04091         0.10600
H          1.56255        19.03449        -0.24447
H          5.05812         0.37014         1.45003
H          3.41990        20.48091        -0.58437
H          7.31832         0.36352         0.42720
H          6.21137        20.24061        -1.33764
H          9.79609         0.30851        -0.04621
H          8.61066        20.35771        -0.78742
H         12.28404         0.25719        -0.05729
H         11.18535        20.36038        -0.89962
H         14.75082         0.22988        -0.32588
H         13.60265        20.31580        -0.36980
H         17.34009         0.20590        -0.57891
H         15.93842        20.26500         0.37509
H         19.77079         0.25415        -0.38400
H         18.03819        20.13363         1.63233
H         21.90068         1.47782        -0.31294
H         23.13216         3.65966        -0.19108
H         23.15184         6.13594        -0.33240
H         23.03393         7.98326         0.53024
H         22.86655        10.35750         1.10512
H         22.51261        11.97840         2.14586
H         22.39348        14.34277         2.72906
H         22.05270        16.17931         3.42566
H         20.16230        20.01945         2.90317
H         21.95149        18.60391         3.87165
