         651
 CSIRO Nanostructure Databank - Neutral Graphene Oxide Data Set
C          5.92392        31.79496         0.63675
C          5.90806        33.14673         0.48629
C          8.32472        27.46629         0.07184
C          8.30271        28.85852         0.28061
C          7.13704        29.61872         0.48089
C          8.37376        31.74649         0.67851
C          7.17140        31.03798         0.63784
C          8.43246        33.25192         0.75728
C          7.12957        33.91504         0.35593
C          8.37259        35.96483        -0.23956
C          7.13665        35.21277        -0.06882
C          8.35111        37.34451        -0.44435
C         10.76669        23.11012        -0.56687
C         10.69749        24.58903        -0.70060
C          9.53417        25.34733        -0.22218
C         10.76047        27.48374        -0.55990
C          9.51824        26.73116        -0.21686
C         10.80261        28.94894        -0.21528
C          9.60807        29.53788         0.43680
C         10.91398        31.74585         0.39578
C          9.65175        31.04556         0.67355
C         10.92726        33.16315         0.26856
C          9.59584        33.78823        -0.09214
C         10.83777        35.98140        -0.25478
C          9.62373        35.28902        -0.12583
C         10.79855        37.33840        -0.61187
C          9.56356        38.06430        -0.62267
C         10.79332        40.20692        -0.47869
C          9.57500        39.48044        -0.60295
C         10.83491        41.49703        -0.00181
C         13.30619        18.89928        -0.37969
C         13.22684        20.30527        -0.44671
C         12.02022        21.00496        -0.33854
C         13.19137        23.28051        -0.10345
C         11.95415        22.43154        -0.42744
C         13.25722        24.54383        -0.96385
C         11.98222        25.33936        -0.98571
C         13.26428        27.46107        -0.59953
C         12.06084        26.78632        -0.68654
C         13.36043        28.83927         0.03898
C         12.08956        29.63588        -0.01569
C         13.41390        31.68932         0.44609
C         12.11682        30.99227         0.25952
C         13.39332        33.20030         0.59595
C         12.11445        33.87612         0.30292
C         13.40895        35.89026        -0.48719
C         12.15272        35.38072         0.21893
C         13.32704        37.24778        -1.09133
C         12.03219        38.01897        -1.01957
C         13.34011        40.22019        -0.72092
C         12.04794        39.53212        -0.89355
C         13.35399        41.49826        -0.22399
C         12.12847        42.14422         0.38594
C         13.29098        44.35073         0.07816
C         12.11365        43.63774         0.20301
C         13.31139        45.77030         0.22383
C         15.75597        14.71181         0.28239
C         15.72667        16.02849        -0.15532
C         14.53106        16.78997        -0.19879
C         15.79503        18.87361        -0.66019
C         14.52133        18.17442        -0.45821
C         15.77152        20.35203        -0.82039
C         14.46865        21.09151        -0.68693
C         15.77345        23.23935        -0.45184
C         14.53287        22.46540        -0.03180
C         15.78620        24.60948        -0.64227
C         14.52699        25.31249        -0.95593
C         15.72358        27.47016        -0.89933
C         14.51554        26.78449        -0.84915
C         15.70765        28.95505        -0.94184
C         14.55733        29.67097        -0.37930
C         15.87687        31.77552        -0.16845
C         14.63579        31.01237        -0.06775
C         15.96874        33.10779         0.59288
C         14.67866        34.04359         0.59191
C         15.89262        35.92155        -0.66770
C         14.61754        35.25557        -0.33361
C         15.88276        37.34523        -1.04102
C         14.59186        38.03760        -1.27344
C         15.86324        40.19275        -0.87446
C         14.56966        39.58649        -1.36920
C         15.86236        41.49013        -0.10024
C         14.57935        42.26039        -0.18531
C         15.79551        44.39227        -0.08307
C         14.56473        43.63926        -0.06502
C         15.77512        45.77270         0.12416
C         14.51877        46.47313         0.32854
C         15.74228        48.53685         0.88234
C         14.53460        47.84807         0.67532
C         15.74618        49.90941         1.27729
C         18.09332        10.63629         1.98531
C         18.28990        12.08961         1.53791
C         17.00249        12.73381         1.05692
C         18.25236        14.70768         0.26965
C         16.98797        13.99214         0.49993
C         18.24847        16.02391        -0.12552
C         16.99206        16.67336        -0.66323
C         18.28442        18.88616        -0.72671
C         16.97937        18.18793        -0.58128
C         18.29172        20.41959        -0.76843
C         17.02127        21.11641        -0.61915
C         18.25563        23.23826        -0.54246
C         17.01384        22.50805        -0.49499
C         18.24654        24.64993        -0.67858
C         17.00624        25.35488        -0.77927
C         18.22515        27.48906        -1.04333
C         16.98120        26.76572        -0.94439
C         18.27037        28.90881        -1.05075
C         17.02131        29.71300        -1.00194
C         18.36319        31.75130        -0.35298
C         17.03730        31.10033        -0.49656
C         18.41017        33.21611        -0.36073
C         17.27186        33.98074         0.29405
C         18.40056        36.12269        -0.44481
C         17.09903        35.32509        -0.37986
C         18.31784        37.29298        -1.43482
C         17.04333        38.06206        -1.22217
C         18.32609        40.18630        -0.89428
C         17.05564        39.51062        -1.04290
C         18.39269        41.57591        -0.30695
C         17.08905        42.32020        -0.34709
C         18.29429        44.46679        -0.33333
C         17.05952        43.69541        -0.26472
C         18.26871        45.84960        -0.07616
C         17.00782        46.51043         0.21420
C         18.25358        48.51702         0.90713
C         16.97886        47.83788         0.63800
C         18.22857        49.96390         1.32278
C         16.92185        50.65058         1.44876
C         18.15048        52.73941         1.90225
C         16.93695        52.01613         1.79850
C         18.17519        54.06443         2.40768
C         20.46841         6.29879         2.54074
C         20.38110         7.69380         2.30918
C         19.09928         8.27207         2.25672
C         20.84378        10.48591         1.10428
C         18.89040         9.57751         1.66566
C         20.77278        11.86856         0.91672
C         19.42930        12.46702         0.53802
C         20.69085        14.66169         0.55670
C         19.50463        13.98873         0.49993
C         20.76511        16.09246         0.20385
C         19.51203        16.77573        -0.20974
C         20.73613        18.96004        -0.13322
C         19.50974        18.24638        -0.26265
C         20.74437        20.42077        -0.25720
C         19.54086        21.12418        -0.43920
C         20.71553        23.27871        -0.30719
C         19.49878        22.54571        -0.42775
C         20.71614        24.69406        -0.58193
C         19.47526        25.36318        -0.79071
C         20.69776        27.45299        -1.22042
C         19.46239        26.76889        -1.02148
C         20.70338        28.85297        -1.33463
C         19.50552        29.57124        -1.15004
C         20.79263        31.77887        -1.18510
C         19.59398        31.00987        -0.81117
C         20.82071        33.13034        -1.00443
C         19.60644        33.87849        -0.67188
C         20.80998        35.97261        -1.21239
C         19.62879        35.29858        -0.77498
C         20.79503        37.43539        -1.39510
C         19.58512        38.11859        -1.38513
C         20.74920        40.32698        -1.31082
C         19.53193        39.55345        -1.20456
C         20.75053        41.71466        -1.16894
C         19.56574        42.39817        -0.77614
C         20.74885        44.58142        -0.78023
C         19.52944        43.79843        -0.64388
C         20.71707        45.98128        -0.51769
C         19.48225        46.61697        -0.12085
C         20.63089        48.77694         0.23549
C         19.47795        47.96839         0.29657
C         20.64418        50.12277         0.66517
C         19.44169        50.77808         1.11696
C         20.59001        52.96897         1.37008
C         19.38152        52.12582         1.45132
C         20.63043        54.22804         2.13773
C         19.36976        54.79035         2.60435
C         20.56048        56.78013         3.45529
C         19.36423        56.07962         3.18640
C         20.57644        58.13179         3.82172
C         22.94329         3.48883         2.45407
C         21.71452         4.17780         2.60919
C         22.92254         6.30070         3.01228
C         21.67119         5.57558         2.71397
C         22.91825         7.79740         2.90246
C         21.66782         8.49511         2.41116
C         23.05947        10.59599         2.01302
C         21.87355         9.85056         1.81687
C         23.12778        11.93104         1.53667
C         21.95513        12.59124         1.09710
C         23.17500        14.80043         1.06833
C         22.01382        13.98371         0.58668
C         23.17717        16.19074         0.96200
C         21.85810        16.92503         0.83929
C         23.25444        18.96778         0.02440
C         21.92630        18.30263         0.23632
C         23.20080        20.47192         0.20714
C         21.94763        21.15681        -0.00275
C         23.12117        23.34614         0.26777
C         21.90561        22.57326        -0.01372
C         23.15921        24.78528        -0.20980
C         21.93350        25.40018        -0.74098
C         23.19137        27.43341        -1.41926
C         21.95784        26.75104        -1.17536
C         23.24544        28.83432        -1.69185
C         21.94931        29.55194        -1.72082
C         23.26869        31.75404        -1.81467
C         21.97145        31.04966        -1.70689
C         23.27299        33.12017        -1.68745
C         22.14506        33.85782        -0.99708
C         23.19210        36.05752        -1.92478
C         21.99849        35.28418        -1.43606
C         23.22837        37.39746        -1.22259
C         22.05265        38.14754        -1.31813
C         23.24164        40.38702        -1.65962
C         21.96868        39.60571        -1.81960
C         23.25732        41.79026        -1.08388
C         21.98538        42.50942        -1.55215
C         23.17626        44.70797        -1.16587
C         21.97471        43.95712        -1.10165
C         23.11811        46.11904        -0.98678
C         21.90720        46.74364        -0.64821
C         23.11918        48.76600         0.18290
C         21.85135        48.25213        -0.48581
C         23.10698        50.17890         0.63033
C         21.90685        50.83751         0.75281
C         23.14671        52.93236         1.53208
C         21.90454        52.28390         1.07171
C         23.11134        54.26285         2.01569
C         21.83180        54.86337         2.36538
C         23.13112        56.77137         3.47209
C         21.84237        56.06511         3.23073
C         23.08269        58.18238         3.98318
C         21.77930        58.88148         3.98843
C         22.97991        61.02807         4.05600
C         21.77835        60.26531         4.14587
C         24.15427         4.14039         2.43111
C         25.46402         6.32670         2.53440
C         24.25523         5.54617         2.81723
C         25.51258         7.71614         2.61512
C         24.26811         8.49331         2.87097
C         25.58439        10.59526         2.16202
C         24.29892         9.96717         2.52478
C         25.62117        11.97114         1.83734
C         24.36940        12.67976         1.58099
C         25.61078        14.79916         1.64403
C         24.36059        14.05754         1.38094
C         25.61927        16.29017         1.54861
C         24.37277        16.97674         1.12551
C         25.63036        19.07462         0.81440
C         24.40772        18.32310         0.76884
C         25.64331        20.43173         0.51912
C         24.39917        21.15300         0.37915
C         25.72620        23.40001         0.35356
C         24.41588        22.62907         0.49016
C         25.73392        24.73069        -0.28626
C         24.45807        25.29492        -0.72164
C         25.72535        27.31656        -1.71983
C         24.42307        26.63627        -1.44166
C         25.69959        28.77103        -2.11205
C         24.43597        29.53747        -1.96559
C         25.68484        31.67895        -2.30353
C         24.48111        30.98993        -2.09566
C         25.68969        33.12913        -2.55425
C         24.42498        33.88220        -2.17913
C         25.72550        35.99335        -1.79899
C         24.49738        35.31747        -1.88608
C         25.72316        37.33364        -1.23933
C         24.51032        37.82555        -0.70744
C         25.66866        40.47177        -1.70749
C         24.39663        39.87579        -2.16448
C         25.69439        41.96236        -1.75644
C         24.49434        42.59814        -1.49351
C         25.66991        44.75311        -1.42562
C         24.46236        44.03603        -1.38075
C         25.65965        46.23726        -1.40440
C         24.32625        46.99586        -1.28659
C         25.63875        48.97648        -0.18647
C         24.40296        48.13592        -0.25352
C         25.67868        50.15772         0.73064
C         24.37318        50.82567         1.04267
C         25.58861        52.96658         1.52986
C         24.37798        52.26964         1.37576
C         25.56503        54.31429         1.96332
C         24.33542        54.94157         2.24455
C         25.60313        57.03981         2.97015
C         24.28547        56.41924         2.54821
C         25.60422        58.31738         3.47807
C         24.36126        58.99591         3.91957
C         24.20785        60.45184         3.86009
C         26.72337         8.42058         2.40383
C         28.03091        10.50099         2.04209
C         26.79384         9.83716         2.23375
C         28.09601        11.90652         1.84263
C         26.86283        12.62765         1.72918
C         28.10673        14.83229         1.77825
C         26.89277        14.06803         1.29777
C         28.12709        16.29148         1.48419
C         26.93055        16.96716         1.37736
C         28.21689        19.15731         1.12673
C         26.88915        18.42999         1.26854
C         28.22535        20.46060         0.41470
C         26.90632        21.10597         0.02920
C         28.24272        23.26596        -0.12281
C         26.99197        22.59918         0.29954
C         28.20123        24.69258        -0.51353
C         26.95314        25.36347        -0.69032
C         28.20549        27.38554        -1.38541
C         26.97578        26.68843        -1.24225
C         28.24936        28.80156        -1.75560
C         27.01432        29.49592        -2.20195
C         28.25502        31.77290        -2.22262
C         26.99416        30.98749        -2.37972
C         28.26021        33.12998        -2.37200
C         26.99977        33.92480        -2.71572
C         28.18564        36.06497        -2.04842
C         26.97250        35.31040        -2.05124
C         28.19533        37.43014        -1.77799
C         27.02138        38.10753        -1.09428
C         28.14960        40.42662        -1.62871
C         26.89036        39.65192        -1.43222
C         28.11029        41.89311        -1.36574
C         26.95706        42.64004        -1.59485
C         28.16163        44.76730        -1.20924
C         26.94721        44.08484        -1.46310
C         28.17099        46.13777        -0.83326
C         26.95485        46.94943        -1.06453
C         28.12635        48.87998         0.18650
C         26.95432        48.37379        -0.56832
C         28.15741        50.25242         0.69475
C         26.95474        50.91933         0.80962
C         28.12241        53.04037         1.47312
C         26.86520        52.41847         0.92672
C         28.05855        54.34665         1.98266
C         26.82822        55.02859         2.18737
C         26.81324        56.33291         2.68832
C         29.33001        12.59466         1.67561
C         30.63847        14.81240         1.53430
C         29.42344        14.04589         1.81210
C         30.65316        16.19235         1.35133
C         29.40492        16.97002         1.35879
C         30.72168        19.03502         0.96812
C         29.44156        18.33191         1.13290
C         30.68623        20.44980         0.43307
C         29.38950        21.06831         0.06000
C         30.67687        23.19682        -0.54273
C         29.38228        22.41539        -0.66571
C         30.66882        24.57002        -0.66167
C         29.41529        25.32904        -0.79369
C         30.71711        27.31645        -1.60446
C         29.42260        26.69340        -1.16404
C         30.69967        28.83757        -1.58171
C         29.44297        29.51459        -1.75254
C         30.84938        31.63695        -2.28544
C         29.50397        30.93867        -2.21461
C         30.84344        33.14779        -2.40953
C         29.53598        33.89451        -2.53805
C         30.69713        36.07434        -1.76421
C         29.50479        35.44918        -2.54162
C         30.68674        37.41952        -1.50375
C         29.49505        38.18451        -2.06360
C         30.55131        40.28699        -0.91422
C         29.44023        39.67994        -1.69930
C         30.52803        41.76290        -0.66003
C         29.41529        42.54937        -1.27011
C         30.65423        44.65850        -0.51727
C         29.45073        44.05114        -1.14620
C         30.65661        46.12903        -0.40708
C         29.30543        46.74621        -0.29889
C         31.05381        49.04350         0.78630
C         29.14044        47.98065         0.40376
C         30.73148        50.44668         0.82853
C         29.43206        50.97332         0.94962
C         29.33184        52.34938         1.32496
C         31.88608        16.86638         1.06965
C         33.17320        18.93090         0.55889
C         31.96860        18.24746         0.83830
C         33.21717        20.29798         0.15995
C         31.93729        20.95931        -0.19287
C         33.21093        23.12585        -0.45591
C         31.94213        22.43158        -0.59277
C         33.15917        24.58302        -0.31472
C         31.90878        25.31622        -0.65313
C         33.16793        27.37580        -1.11465
C         31.93019        26.66521        -0.95604
C         33.06540        28.59029        -1.78525
C         31.92707        29.47570        -1.73946
C         33.27830        31.64195        -1.65639
C         32.10136        30.94017        -1.86167
C         33.35558        33.14361        -1.70285
C         32.09589        33.90760        -2.03032
C         33.10411        35.98495        -0.84057
C         31.89940        35.27151        -1.40763
C         33.03534        37.44373        -0.62857
C         31.82105        38.14216        -0.91343
C         32.78574        40.19373         0.22566
C         31.76703        39.51833        -0.65933
C         32.88124        41.70556         0.06502
C         31.78912        42.45889        -0.30536
C         32.99526        44.58183         0.24536
C         31.79425        43.91477        -0.25241
C         33.05510        45.96949         0.37135
C         31.97349        46.85951        -0.05262
C         32.08272        48.33767         0.23146
C         34.40451        21.01065        -0.01746
C         35.66747        23.14423        -0.23993
C         34.43167        22.43012        -0.26178
C         35.75704        24.55811        -0.38226
C         34.47357        25.31070        -0.32882
C         35.78887        27.45180        -0.69133
C         34.45941        26.77455        -0.65186
C         35.88440        28.91089        -0.93514
C         34.92287        29.64539        -1.52968
C         35.76495        31.78448        -0.92899
C         34.47852        30.98323        -0.98852
C         35.68018        33.23849        -0.72178
C         34.48142        33.87478        -1.01730
C         35.54156        36.05975        -0.19111
C         34.49493        35.39465        -1.08217
C         35.41004        37.37941         0.14839
C         34.18390        38.13314        -0.13593
C         35.23255        40.19121         0.77820
C         34.11123        39.49028         0.20794
C         35.18836        41.59781         0.95687
C         34.07891        42.37277         0.54770
C         34.10096        43.77339         0.63948
C         36.96984        25.24136        -0.39756
C         38.19252        27.50155        -0.01331
C         37.10834        26.70770        -0.74860
C         38.13178        28.86145         0.18523
C         36.82153        29.60076         0.00407
C         38.11452        31.77755         0.07739
C         36.98383        31.02758        -0.46101
C         38.06191        33.16592        -0.12606
C         36.87312        33.91516        -0.30175
C         37.98741        36.05240         0.71187
C         36.68032        35.25071         0.40315
C         37.65169        37.42256         1.22451
C         36.48501        38.06900         0.88361
C         36.36665        39.46014         1.15847
C         39.17900        29.67055         0.76612
C         40.07726        31.75529         1.70595
C         39.15146        31.07587         0.79348
C         40.12622        33.06906         2.07746
C         39.43221        34.13161         1.36151
C         38.82683        35.28006         1.74102
O         26.14066        40.22538        -0.30405
O         26.25730        49.29424        -1.47060
O         11.87311        38.87479        -2.19773
O         20.53529        16.26419        -1.24012
O         22.68503        55.79470         4.43965
O         26.50341        46.81792        -2.45712
O         23.83476        47.80949         1.04163
O         25.08311        49.98151         2.05138
O         21.70807        30.32094        -2.96358
O         33.12500        33.76673        -3.05295
O         21.19776        53.06840         0.03633
O         27.96711        23.00714         1.29831
O         39.29325        33.82354        -0.01906
O         31.53133        46.70462        -1.45390
O         33.78322        25.05546         0.94350
O         24.34660         9.49434         3.92069
O         29.79344        43.36370        -2.41535
O         30.00273        40.86659         0.39000
O         25.71021        27.72063        -3.13945
O         34.15026        29.05097        -2.52110
O         30.85302        20.20860         1.85957
O          9.83744        30.04429         1.76304
O         30.07162        48.23700         1.40702
O         23.65772         5.82103         4.15089
O         27.49784        19.14492         2.40167
O         25.56682        15.59027         2.86098
O         28.91421        40.35937        -2.89461
O         15.02573        20.88686        -2.00368
O         10.55504        28.51213        -1.59628
O         18.40841        19.61292        -2.00422
O         13.41984        32.31351         1.76609
O         28.64925        14.48362         3.03753
O         30.25773        31.02374        -3.46996
O         16.19667        29.51753        -2.20916
O         27.13306        30.09266        -3.54558
O         25.09379        23.18894         1.66071
O         12.87444        23.76204         1.18149
O         13.97469        24.66852        -2.21213
O         13.93269        37.38212        -2.42149
O         22.43229        13.79789        -0.94491
O         18.42224        48.90016         2.32797
O         30.31596        33.48234        -3.71923
O         23.86505        58.40118         5.19353
O         11.08744        25.00202        -2.08640
O         22.99572        24.46952         1.20044
O         22.02953         8.46238         3.84373
O         35.05679        27.39095         0.59316
O         19.79481         9.73632         0.59147
O         24.33802        25.38362        -2.19934
O         16.08059        32.63172         1.91644
O         36.75608        31.30356        -1.89010
O         31.85062        21.32462        -1.59810
O         24.73040        33.53221        -3.60303
O         32.20810        35.21598         0.03972
O         19.28041        31.15646         0.64182
O         21.79223        39.37680        -3.26600
H         21.01848        38.78512        -3.39021
O         24.45353        38.61861         0.37485
H         25.37158        38.79582         0.69562
O         36.19102        34.86392         1.73322
H         35.29795        34.47024         1.63099
O         15.92581        41.05866         1.31726
H         16.88289        40.89107         1.52099
O         18.61699        36.68965         0.86926
H         18.42353        35.96385         1.51859
O         34.86615        35.76257        -2.44110
H         34.37401        35.16241        -3.05495
O         30.85705        26.96532        -3.02836
H         30.11902        27.39143        -3.51642
O         37.48833        26.73147        -2.16466
H         38.39293        26.36295        -2.24477
O         29.60576        35.83209        -3.91896
H         30.06163        35.10564        -4.40457
O         26.98578        14.08863        -0.16279
H         26.24583        13.55538        -0.52439
O         21.39445        17.10689         2.22589
H         22.11954        17.52461         2.73821
O         12.27769        35.85949         1.59441
H         13.11374        35.45973         1.96592
O         29.16236        22.19191        -2.07647
H         29.98536        21.78710        -2.43447
O         17.02619        16.39237        -2.10538
H         17.74316        16.93433        -2.50034
O         21.78551        48.85455        -1.80779
H         22.53662        48.49321        -2.34573
O         29.74816        38.17030        -3.48452
H         29.09900        38.76459        -3.92094
O         14.74220        22.16392         1.36764
H         14.09007        22.76944         1.83755
O         27.34818        38.11861         0.34005
H         28.08938        38.74279         0.49655
O         26.76303        21.01690        -1.42341
H         26.53687        20.09455        -1.66700
O         12.25022        41.93537         1.84711
H         13.17623        42.14999         2.09410
O         17.85142        34.25811         1.60227
H         17.37377        33.58897         2.20044
O         21.25356        13.58795        -1.73274
H         20.92078        14.51768        -1.89062
O         38.72760        36.30613        -0.49403
H         39.17552        35.46570        -0.75375
O         19.05088        12.02066        -0.77273
H         19.76290        12.31002        -1.39115
O         18.23973        36.69118        -2.76046
H         17.82386        37.33512        -3.37117
O          8.72268        33.60563         2.13327
H          8.05638        33.17766         2.70992
O         22.55411        33.92052         0.42191
H         21.79045        34.26069         0.93679
O         23.92810        57.08106         1.28729
H         24.59481        56.82716         0.61420
O         26.78287        52.87259        -0.48082
H         27.58930        52.55522        -0.94151
O         13.55763        28.53332         1.46553
H         13.66542        29.38314         1.94718
O         24.07854        47.60659        -2.57755
H         24.96675        47.81864        -2.96123
O         33.99300        30.77082         0.36922
H         34.73135        30.38899         0.92074
O         23.58914        18.75239        -1.40680
H         22.78624        18.96308        -1.93126
O          9.29913        33.35480        -1.45373
H          9.91821        33.80276        -2.06740
O         18.67073        12.79190         2.76140
H         17.96037        12.66910         3.42527
O         23.24729        41.77902         0.36089
H         23.99190        41.21503         0.66125
O         14.71391        34.66304         1.90809
H         15.11127        33.92805         2.47109
O         36.23752        29.67815         1.34741
H         35.91827        28.76882         1.56782
O         18.65034        41.32573         1.15080
H         18.93261        42.17967         1.54573
O         22.95873        36.38752        -3.35225
H         23.18805        35.58937        -3.87798
O         14.48852        39.91241        -2.78235
H         13.77254        39.33755        -3.14776
O         27.15187        34.21410        -4.12804
H         26.24746        34.21783        -4.52055
O         22.06241        42.53564        -3.00375
H         21.25354        42.96771        -3.34823
O         24.47148        38.91217        -3.11574
H         23.55275        38.70597        -3.42881
O         32.28404        40.00522         1.60926
H         31.35310        40.34138         1.60478
H          4.97914        31.23451         0.68787
H          4.94844        33.67920         0.40087
H          7.38104        26.90560         0.15325
H          6.15757        29.12307         0.41083
H          6.18725        35.72382        -0.29298
H          7.39526        37.88825        -0.44434
H          9.83386        22.54737        -0.74339
H          8.63498        24.79339         0.08953
H          8.62372        40.01358        -0.45516
H          9.89936        42.00986         0.26919
H         12.37653        18.33070        -0.21943
H         11.08961        20.44327        -0.15495
H         11.17340        44.17422         0.40205
H         12.35976        46.30357         0.36699
H         14.81246        14.22183         0.57107
H         13.58213        16.29736         0.06573
H         13.57897        48.36985         0.83345
H         14.77659        50.41050         1.41964
H         17.40052        10.52009         2.83549
H         16.04578        12.22936         1.26767
H         15.98756        52.52878         2.01464
H         17.22633        54.51599         2.73473
H         19.53309         5.71889         2.49560
H         18.23941         7.65647         2.56698
H         18.39941        56.55902         3.41197
H         19.61683        58.66272         3.92203
H         22.91006         2.41294         2.23051
H         20.77398         3.62471         2.47553
H         22.89557        62.12442         4.06128
H         20.81921        60.79848         4.21931
H         25.06606         3.61232         2.11747
H         26.37276         5.77815         2.24324
H         26.56346        58.82302         3.67396
H         25.08945        61.07456         3.64936
H         27.65357         7.83912         2.31982
H         28.96452         9.92241         2.09876
H         28.99312        54.85452         2.26766
H         27.77054        56.82702         2.91574
H         30.25469        12.01550         1.53318
H         31.57307        14.25034         1.38353
H         31.56457        51.16793         0.82592
H         30.26240        52.86835         1.60492
H         32.80646        16.26437         1.02871
H         34.12190        18.37684         0.62329
H         33.92897        46.41500         0.87076
H         32.91264        48.85942        -0.26812
H         35.36106        20.50640         0.18580
H         36.59852        22.56686        -0.13747
H         36.06775        42.10544         1.37985
H         35.00591        44.26850         1.02256
H         37.89981        24.65031        -0.35600
H         39.13540        26.97202         0.20639
H         38.45464        37.99590         1.71408
H         37.20691        39.97723         1.64606
H         40.02967        29.15681         1.24215
H         40.70391        31.06311         2.29324
H         40.74666        33.34251         2.94519
H         38.84193        35.61552         2.78709
