         261
 CSIRO Nanostructure Databank - Neutral Graphene Oxide Data Set
C        -11.18784         0.65562         1.00247
C        -10.08337         1.47570         0.35088
C         -8.79122         0.69457         0.53769
C         -7.58619         1.46563         0.13261
C         -6.34895         0.75845        -0.26186
C         -5.05636         1.50734        -0.24865
C         -3.81864         0.83805        -0.76237
C         -2.48654         1.53800        -0.55340
C         -1.31866         0.69025        -0.14950
C         -0.02820         1.35490         0.31600
C          1.28051         0.60347         0.17755
C          2.59952         1.35908         0.28534
C          3.87488         0.65583        -0.14189
C          5.15696         1.45300        -0.24429
C          6.35410         0.83825        -0.93284
C          7.63582         1.59666        -0.71088
C          8.77852         0.80473        -0.14676
C         10.06147         1.50973         0.28355
C         11.24815         0.63942         0.49295
C         -9.74196         2.90806         0.89146
C         -8.72667         3.70909         0.07979
C         -7.63849         2.87984         0.76533
C         -6.27225         3.20795         1.26603
C         -4.98485         2.75481         0.61139
C         -3.75652         3.60615         0.37684
C         -2.50608         2.98811        -0.19930
C         -1.24196         3.69682         0.23598
C         -0.02694         2.85296         0.57314
C          1.28219         3.58210         0.70966
C          2.60340         2.84858         0.52218
C          3.83573         3.63341         0.11919
C          5.17638         2.92763         0.04991
C          6.33293         3.81838        -0.47703
C          7.68209         3.08939        -0.45087
C          8.97001         3.78130        -0.08798
C         10.16234         2.95036         0.15393
C         -8.74902         5.00442        -0.32997
C         -7.56092         5.85594        -0.47117
C         -6.24349         5.17369        -0.60183
C         -5.10117         5.83851         0.13700
C         -3.86181         5.09932         0.54568
C         -2.58877         5.88910         0.86666
C         -1.28795         5.14128         0.67405
C          0.00734         5.81357         1.04269
C          1.24675         5.07851         0.57296
C          2.51815         5.85046         0.45575
C          3.82589         5.12758         0.22889
C          5.10034         5.83296         0.59659
C          6.39230         5.14296         0.29362
C          7.63103         5.96386         0.13112
C          8.96372         5.25493         0.33948
C         -7.58549         7.22261        -0.42440
C         -6.34897         8.04240        -0.25633
C         -5.08995         7.34616         0.14104
C         -3.73121         7.96253        -0.19540
C         -2.63292         7.40425         0.82581
C         -1.51803         8.46527         1.11607
C          0.04661         7.29749         0.97537
C          1.11003         8.13277         0.20345
C          2.55871         7.22090         1.09254
C          3.76846         8.09261         0.84346
C          5.08992         7.33536         0.75053
C          6.31748         8.08786         0.29483
C          7.55531         7.31036        -0.01059
C         -6.20301         9.41516        -0.79048
C         -5.00919        10.06602        -0.77284
C         -3.75744         9.47558        -0.32463
C         -2.58658        10.19635        -0.29446
C         -1.33218         9.62778         0.16297
C         -0.12032        10.27676         0.06630
C          1.15772         9.63792         0.37586
C          2.37461        10.25361         0.27059
C          3.68262         9.55509         0.46578
C          4.91308        10.11244        -0.15430
C          6.09494         9.45881        -0.22300
C        -11.18201        -0.69051         0.93191
C        -10.07015        -1.47646         0.25045
C         -8.74831        -0.78148         0.55382
C         -7.48167        -1.49761         0.19540
C         -6.27151        -0.73494        -0.23914
C         -5.14763        -1.40472        -1.00118
C         -3.83859        -0.63460        -1.14146
C         -2.54700        -1.39570        -1.16612
C         -1.33725        -0.76507        -0.50907
C         -0.03286        -1.53219        -0.53839
C          1.23784        -0.69720        -0.60455
C          2.50520        -1.34265        -1.07395
C          3.83270        -0.73118        -0.69034
C          5.07363        -1.39867        -1.23847
C          6.42628        -0.67377        -1.30822
C          7.52201        -1.45011        -0.56677
C          8.76045        -0.70610        -0.20340
C         10.09072        -1.44622        -0.35140
C         11.23935        -0.68705         0.27918
C         -9.95386        -2.95830         0.57686
C         -8.81675        -3.65170         0.28288
C         -7.66858        -2.89473        -0.39069
C         -6.31289        -3.60058        -0.27187
C         -5.14678        -2.90664        -0.94221
C         -3.83499        -3.65306        -0.92392
C         -2.55115        -2.90757        -1.05866
C         -1.31647        -3.58223        -1.64764
C         -0.03580        -2.94443        -1.05108
C          1.26799        -3.60376        -1.41537
C          2.53939        -2.83252        -1.35323
C          3.74171        -3.47505        -0.69126
C          5.06971        -2.88804        -1.07728
C          6.33126        -3.70761        -0.90432
C          7.68916        -2.95020        -1.00401
C          8.78302        -3.56686        -0.11805
C          9.90642        -2.85617         0.16204
C         -8.72499        -5.11098         0.29840
C         -7.56982        -5.79562         0.06445
C         -6.27391        -5.06845        -0.02567
C         -5.07856        -5.83787        -0.52130
C         -3.89273        -5.14612        -1.11653
C         -2.60062        -5.92384        -1.33963
C         -1.30533        -5.13414        -1.52054
C         -0.00378        -5.83223        -1.20196
C          1.31067        -5.08405        -1.11715
C          2.49526        -5.66710        -0.41495
C          3.66368        -4.80071        -0.02099
C          4.96649        -5.41003         0.57021
C          6.23671        -5.03485        -0.20568
C          7.48095        -5.63594         0.36918
C          8.63790        -4.92876         0.37992
C         -7.56026        -7.27779        -0.27181
C         -6.26267        -7.97560         0.14649
C         -4.96731        -7.22879         0.02996
C         -3.58753        -7.93313         0.02738
C         -2.56267        -7.40318        -1.00750
C         -1.23358        -8.13813        -0.86106
C          0.00574        -7.28739        -0.75563
C          1.09982        -7.75507         0.16553
C          2.34623        -6.96364         0.31156
C          3.64027        -7.70536         0.45349
C          4.86957        -6.93167         0.84714
C          6.11912        -7.72262         1.06847
C          7.49043        -7.07523         0.87164
C         -6.19737        -9.45506         0.12501
C         -5.01610       -10.10787         0.07005
C         -3.72119        -9.44657        -0.02245
C         -2.58010       -10.17599        -0.08085
C         -1.21221        -9.60631        -0.32126
C         -0.27592        -9.72906         0.92672
C          1.10635        -9.19230         0.57204
C          2.27252        -9.84438         0.78036
C          3.60282        -9.19873         0.56908
C          4.86913        -9.88002         0.95197
C          6.03677        -9.21355         1.03390
O          1.34191        -6.90383         1.35980
O         -0.04915        -2.66374         0.37951
O          4.01973        -0.51996         0.73689
O         -5.64051        -7.34455         1.30858
O         -6.01729        -4.10304         1.04922
O          5.33173        -7.21566         2.20520
O          8.14699        -2.90365        -2.32545
O         -4.62637         1.68494        -1.62323
O          1.98448        -3.23242        -2.62745
O         -8.67763        -0.02460         1.79794
O         -3.36108         7.42121        -1.40826
O          7.02161         1.52534        -2.03503
O         -6.38629        -1.27500         1.12412
O         -2.86387        -6.97095        -2.34061
O         -0.50014        -5.69673        -2.57860
O          3.36855        -3.58027         0.72455
O          5.84197         5.11173         1.64326
O          6.21354        -4.97010        -1.65190
O         -4.94999         5.33010         1.49973
O         -2.98888        -3.35568         0.24605
O         -0.27248        -8.08675        -1.94554
O          2.35494        -5.78432        -1.86014
O          1.66886         5.61308        -0.69855
O         -1.05679         4.76896        -0.73516
O         -8.05617        -2.74718        -1.73065
O          4.88233        -2.24987        -2.38643
O          2.83137         1.92813         1.60949
O         -5.87714         7.94188         1.18049
O         -1.73587        -0.31167         0.82645
O         -3.95217         2.84017         1.64334
O          3.85784         9.11823         1.87490
O         -1.45195         8.81138         2.32661
O         -2.32548         2.56438        -1.57451
O          5.53067         2.00507         1.08263
O          1.20157         7.87655        -1.03689
O         -3.08677        -0.84424        -2.38109
O          0.13407         6.69302         2.20577
O          0.52547         3.17690         1.88213
O          7.80758        -1.20361         0.81289
O          0.54496         0.58952         1.41146
O          8.55165         3.65248        -1.50285
O          3.74094         4.46246        -1.06879
O         -2.89296         6.69319         2.03802
O         -8.62178         2.73764         1.87454
O         -5.50122        -2.20398        -2.15835
O         -7.26076         1.35300        -1.25920
O          6.01163         7.86167         1.72609
O          3.79244        -8.53616        -0.74561
O         -6.10161         4.13682        -1.23064
O          1.71237        -0.52873        -1.98129
O          8.93312         1.21080         1.24110
O         -2.96132        -7.62336         1.25843
O         -4.96003        -5.65793        -1.97185
O         10.38212        -1.49624        -1.76838
H          9.68132        -2.07932        -2.19130
O         -7.73771        -7.41705        -1.69060
H         -7.07812        -6.85787        -2.15457
O          6.84053        -0.70730        -2.67450
H          7.18871        -1.62602        -2.88163
O         -6.20864         3.40987         2.53746
H         -5.25346         3.44480         2.81991
O         -0.62372       -10.46113        -1.31774
H         -0.12953        -9.88629        -1.95153
O          2.38116         7.10628         2.44184
H          2.70210         7.93865         2.86964
O          9.27824         5.34205         1.73443
H          8.45458         5.24696         2.25798
O          8.23566        -7.87002        -0.06548
H          7.92261        -7.66600        -0.97135
O         -0.79000        -8.99017         2.01489
H         -1.64554        -8.51588         1.77982
O        -10.36769         1.60217        -1.05003
H        -10.48730         0.68809        -1.41073
O        -10.25956        -1.33196        -1.18681
H         -9.53846        -1.88232        -1.63049
O          6.08170         4.16018        -1.84594
H          6.43738         3.43780        -2.41491
O         -1.33010        -3.26859        -3.04247
H         -0.80967        -3.96008        -3.51516
O          5.20727        -4.76117         1.82759
H          4.51509        -5.02660         2.46854
H         12.15875        -1.25988         0.47604
H         12.15585         1.12632         0.88178
H         11.14065         3.44221         0.26552
H          9.77707         5.78610        -0.21881
H          8.48313         7.88978        -0.14683
H          6.94096         9.94127        -0.73594
H          4.83192        11.11122        -0.60939
H          2.42608        11.34500         0.12711
H         -0.08572        11.27684        -0.39806
H         -2.59093        11.25260        -0.61190
H         -4.97270        11.10906        -1.12477
H         -7.10144         9.92117        -1.17269
H         -8.55459         7.74860        -0.40003
H         -9.73132         5.48054        -0.48006
H        -10.60078         3.46909         1.32429
H        -12.02772         1.17814         1.48658
H        -12.01759        -1.25681         1.37248
H        -10.82956        -3.48306         0.99139
H         -9.66799        -5.67225         0.39945
H         -8.42907        -7.78757         0.21555
H         -7.14268       -10.01649         0.15296
H         -5.00545       -11.20876         0.06358
H         -2.64008       -11.27569        -0.08148
H         -0.19774       -10.81819         1.19981
H          2.26306       -10.87931         1.15667
H          4.85316       -10.97716         1.03739
H          6.97405        -9.76404         1.20275
H          8.04979        -7.12142         1.84167
H          9.53840        -5.38900         0.81800
H         10.70767        -3.31483         0.76297
