         651
 CSIRO Nanostructure Databank - Neutral Graphene Oxide Data Set
C          5.82597        31.81967        -0.40641
C          5.83767        33.17746        -0.50415
C          8.28357        27.46900         0.06131
C          8.21959        28.85189         0.17921
C          7.03003        29.63228         0.01447
C          8.24613        31.76198        -0.13358
C          7.04245        31.04808        -0.14981
C          8.34339        33.18792        -0.62625
C          7.06511        33.96486        -0.40439
C          8.27617        36.13287         0.16209
C          7.06360        35.31282        -0.23478
C          8.38459        37.51190        -0.45500
C         10.80134        23.12785         0.52220
C         10.76115        24.55628         0.49945
C          9.57861        25.26094         0.25658
C         10.69194        27.41465         0.85575
C          9.61520        26.74509        -0.01438
C         10.77971        28.87817         0.50216
C          9.47223        29.58944         0.46759
C         10.75002        31.74067        -0.07939
C          9.46718        31.07962         0.27552
C         10.78129        33.21541        -0.01666
C          9.57881        33.89995        -0.12644
C         10.88047        36.05675        -0.25171
C          9.58223        35.35174         0.07720
C         10.86800        37.50346        -0.55446
C          9.59697        38.20058        -0.59030
C         10.85453        40.32380        -0.79738
C          9.63512        39.61662        -0.75576
C         10.88240        41.74127        -0.79873
C         13.16147        18.76041         0.72666
C         13.23232        20.27895         0.68282
C         12.05024        20.98297         0.62052
C         13.24736        23.12806         0.77359
C         12.00954        22.42006         0.63698
C         13.23936        24.55863         0.78847
C         12.01798        25.27260         0.67072
C         13.22083        27.39351         0.78678
C         12.02040        26.69392         0.73160
C         13.22778        28.89606         0.92738
C         11.95799        29.54296         0.44490
C         13.26250        31.74266         0.18713
C         12.01933        30.96928         0.04261
C         13.25883        33.12663        -0.02006
C         12.05197        33.86037        -0.10478
C         13.35528        36.00991        -0.49168
C         12.07198        35.24108        -0.70877
C         13.33916        37.42135        -0.62527
C         12.07994        38.16463        -0.71234
C         13.31587        40.32274        -0.86697
C         12.10802        39.60636        -0.81981
C         13.33675        41.75007        -0.83646
C         12.07644        42.48575        -0.80655
C         12.98233        44.82513        -0.87147
C         11.96937        43.90896        -0.58627
C         13.23167        46.13072        -0.39154
C         15.85090        14.52841         0.31322
C         15.78662        15.94530         0.42347
C         14.55945        16.60761         0.52930
C         15.76481        18.84410         0.41345
C         14.46403        18.05948         0.37804
C         15.73631        20.29827         0.72617
C         14.49033        20.98219         0.77953
C         15.70698        23.11978         1.05213
C         14.47759        22.41095         0.87145
C         15.70851        24.56795         1.06853
C         14.47507        25.27171         0.90842
C         15.69208        27.42253         0.88855
C         14.46368        26.69445         0.85791
C         15.67366        28.86275         0.63559
C         14.50640        29.54704         0.44736
C         15.77796        31.75289         0.21211
C         14.52334        30.96802        -0.07951
C         15.80035        33.12642        -0.09621
C         14.52360        33.78518        -0.57802
C         15.78915        35.98835        -0.46328
C         14.55409        35.29366        -0.42714
C         15.77716        37.39213        -0.64476
C         14.56611        38.10550        -0.72535
C         15.83283        40.23160        -0.53999
C         14.60729        39.56634        -1.12845
C         15.74701        41.61592        -0.08967
C         14.59517        42.40109        -0.58867
C         15.87218        44.54857        -0.30013
C         14.83681        43.74548        -0.86266
C         15.77410        45.93520        -0.19114
C         14.53579        46.70674        -0.31370
C         15.76661        48.85794         0.07233
C         14.59279        48.12022        -0.17831
C         15.80480        50.24802        -0.04898
C         18.30403        10.32268        -0.43381
C         18.30064        11.69673        -0.08924
C         17.08612        12.41478         0.03534
C         18.32615        14.49338         0.42455
C         17.07344        13.80966         0.24376
C         18.35151        15.99408         0.40461
C         17.02526        16.70815         0.52168
C         18.21544        18.85053         1.01579
C         17.00357        18.07699         0.63328
C         18.26629        20.30548         0.59852
C         16.94473        21.00417         0.87024
C         18.17737        23.08889         1.44584
C         16.91994        22.39426         1.11131
C         18.19595        24.60262         1.41986
C         16.91795        25.30391         1.13518
C         18.19055        27.43544         0.87421
C         16.90048        26.71229         1.02333
C         18.17989        28.90165         1.17560
C         16.92304        29.63202         0.85985
C         18.20078        31.73675         0.40424
C         16.96603        31.07561         0.53194
C         18.24719        33.11178         0.07216
C         17.02686        33.82842        -0.10978
C         18.26194        35.93207        -0.43251
C         17.05366        35.26725        -0.35159
C         18.35324        37.38268        -0.68984
C         17.05406        38.12993        -0.80910
C         18.28373        40.26555        -0.24800
C         17.03439        39.57173        -0.48096
C         18.29246        41.64082        -0.00200
C         17.03420        42.34844         0.26753
C         18.33647        44.54767         0.11226
C         17.02459        43.87020         0.44133
C         18.31606        45.98045         0.21644
C         16.98318        46.62444         0.36246
C         18.27117        48.84871         0.57769
C         16.98111        48.13072         0.50068
C         18.19690        50.32799         0.73625
C         16.97754        51.01855         0.22153
C         18.14542        53.23713         0.12737
C         16.96283        52.38162         0.00940
C         18.20125        54.51502        -0.58149
C         20.71074         6.21787        -1.79861
C         20.71880         7.56058        -1.37001
C         19.52719         8.25453        -1.02220
C         20.75150        10.33462        -0.45896
C         19.51094         9.62412        -0.63328
C         20.77816        11.67245        -0.06568
C         19.54873        12.38332         0.11429
C         20.78612        14.42244         0.89324
C         19.52544        13.78170         0.42560
C         20.80048        15.89636         1.18939
C         19.49497        16.62468         1.18408
C         20.78335        18.84090         1.11613
C         19.49768        18.12488         1.25291
C         20.76194        20.26162         1.16582
C         19.50134        21.00852         1.14721
C         20.69332        23.14325         1.65977
C         19.46525        22.36028         1.37094
C         20.70066        24.61176         1.38610
C         19.50572        25.27007         1.20815
C         20.75981        27.47206         1.01324
C         19.49532        26.70900         0.88912
C         20.73923        28.86163         0.97972
C         19.49487        29.67218         1.26128
C         20.75459        31.65679         0.23279
C         19.44936        30.94340         0.42397
C         20.73979        33.11527         0.07146
C         19.52435        33.77513        -0.08133
C         20.84598        35.98333        -0.17388
C         19.53151        35.20000        -0.41303
C         20.80325        37.43989         0.05420
C         19.57529        38.14209        -0.30556
C         20.84903        40.25628        -0.26712
C         19.52729        39.52232        -0.26177
C         20.75127        41.71211         0.10044
C         19.54095        42.38149         0.05844
C         20.79892        44.53667        -0.08587
C         19.51702        43.82841         0.06669
C         20.78810        46.06195         0.08652
C         19.49181        46.72769         0.33165
C         20.74832        48.84470         0.93462
C         19.46266        48.15593         0.59913
C         20.78687        50.36335         0.97227
C         19.47437        51.11287         0.90404
C         20.68455        53.13504        -0.15122
C         19.48196        52.57331         0.50381
C         20.65650        54.35233        -0.78996
C         19.41921        55.13322        -0.86656
C         20.67139        57.11173        -1.69680
C         19.47672        56.50691        -1.22629
C         20.77078        58.49149        -2.00210
C         23.08074         3.59065        -2.97976
C         21.91105         4.20120        -2.57665
C         23.14091         6.30533        -2.21369
C         21.90720         5.57179        -2.18309
C         23.16039         7.65557        -1.74354
C         21.98138         8.24798        -1.30796
C         23.30743        10.17355        -0.28289
C         21.99850         9.54777        -0.59834
C         23.34543        11.60763         0.15326
C         22.09171        12.44379        -0.08264
C         23.35348        14.51801         0.81703
C         22.08438        13.69522         0.79322
C         23.24752        16.00196         0.73112
C         22.06753        16.65935         0.97294
C         23.19163        18.86826         0.77866
C         22.00019        18.13317         0.96850
C         23.20738        20.26811         0.95516
C         21.98908        20.95651         1.21188
C         23.21350        23.17639         1.16844
C         21.99837        22.39696         1.52262
C         23.24658        24.64317         1.39311
C         21.96809        25.33371         1.25510
C         23.26298        27.41839         0.82172
C         21.97687        26.70780         1.02838
C         23.22949        28.90024         0.89781
C         21.94857        29.62278         0.93870
C         23.23515        31.71401         0.59989
C         21.99025        30.98391         0.67371
C         23.21527        33.09111         0.36269
C         21.99064        33.81949         0.18518
C         23.19465        35.92480         0.68703
C         22.00669        35.22400         0.27429
C         23.08112        37.33233         1.24513
C         21.88096        38.10466         0.63192
C         22.76885        40.33884         1.27734
C         21.85337        39.54846         0.61177
C         23.09174        41.71127         0.93082
C         21.97612        42.42344         0.41074
C         23.23976        44.49371         0.58284
C         22.03235        43.81900         0.27791
C         23.24707        45.95203         0.56599
C         22.07227        46.67997         0.45775
C         23.39060        48.88008         0.77067
C         22.06027        48.11026         0.84896
C         23.21736        50.25293         0.06113
C         22.06600        51.07828         0.66485
C         23.25770        53.15166        -0.22485
C         21.98797        52.51357         0.21361
C         23.22015        54.19019        -1.31178
C         21.84547        54.85424        -1.54901
C         22.76642        56.80083        -2.84352
C         21.76553        56.24834        -2.04586
C         23.02610        58.18717        -2.93656
C         21.95652        59.05622        -2.54098
C         23.29500        60.94641        -3.30475
C         22.11062        60.45298        -2.76170
C         24.28601         4.32560        -3.04445
C         25.59087         6.45821        -2.90763
C         24.32647         5.66531        -2.67460
C         25.70096         7.72675        -2.10161
C         24.42446         8.49528        -1.87003
C         25.88698        10.25959        -0.66626
C         24.57656         9.52039        -0.75490
C         25.88124        11.71760        -0.38259
C         24.65753        12.34014         0.20064
C         25.63998        14.65271        -0.34798
C         24.63203        13.84295         0.40238
C         25.71470        16.09652        -0.04851
C         24.57579        16.75680         0.73761
C         25.68479        18.93637         0.24872
C         24.38970        18.16707         0.18949
C         25.65498        20.33047         0.52326
C         24.46753        20.97093         0.87466
C         25.75987        23.12660         1.30706
C         24.48121        22.44727         0.92892
C         25.75217        24.59489         1.64016
C         24.45626        25.29176         1.42832
C         25.57891        27.42222         1.99561
C         24.60865        26.72612         1.00656
C         25.65151        28.95584         1.81301
C         24.42309        29.66899         1.33019
C         25.69971        31.76195         0.99261
C         24.48140        31.06162         0.88464
C         25.72639        33.15459         0.73409
C         24.50252        33.83732         0.17215
C         25.65886        35.98018         0.71374
C         24.40224        35.26488         0.63594
C         25.59668        37.39969         0.65156
C         24.43354        38.07363         1.14070
C         25.67098        40.24077         1.80448
C         24.54359        39.32587         1.75494
C         25.60833        41.62273         1.45990
C         24.35162        42.35103         1.14105
C         25.65114        44.51828         1.38354
C         24.39025        43.76598         0.96958
C         25.68656        45.96654         0.92747
C         24.52176        46.64537         0.64793
C         25.86563        48.76515        -0.03705
C         24.47724        48.04183         0.04600
C         25.76221        50.28742         0.17812
C         24.56314        50.96315         0.12104
C         25.83909        53.14007        -0.30263
C         24.55083        52.43069         0.05857
C         25.77234        54.37159        -1.11043
C         24.53998        54.81485        -1.64645
C         25.74650        56.67559        -2.77509
C         24.63444        55.79780        -2.63747
C         25.54386        57.97736        -3.32807
C         24.31454        58.70494        -3.34706
C         24.38110        60.10832        -3.57319
C         26.90382         8.33707        -1.92625
C         28.15385        10.45669        -1.62007
C         27.02724         9.69998        -1.43165
C         28.15955        11.86818        -1.31960
C         26.91828        12.48370        -0.86367
C         27.97832        14.74808        -1.58613
C         26.79258        13.96381        -1.00452
C         27.94617        16.30661        -1.29466
C         26.80892        16.81838        -0.41490
C         28.09560        18.93563        -0.24211
C         26.86066        18.25719        -0.13232
C         28.11389        20.39698        -0.08674
C         26.87868        21.14024         0.29598
C         28.18549        23.22206         0.87776
C         27.01225        22.50691         0.86705
C         28.26480        24.62764         1.30282
C         27.04647        25.35698         1.64378
C         28.03873        27.60179         2.16911
C         26.94562        26.74973         1.88153
C         28.14343        28.98318         1.81537
C         26.92534        29.68854         1.61920
C         28.17289        31.78114         1.25274
C         26.92556        31.06647         1.31972
C         28.16663        33.19005         1.07248
C         26.92325        33.88038         0.88090
C         28.14905        36.12693         0.97767
C         26.88826        35.31655         0.77804
C         28.06011        37.49040         0.32466
C         26.77495        38.08933         0.08828
C         28.13807        40.23566         1.73556
C         26.92006        39.62069         2.07445
C         28.09099        41.63612         1.55777
C         26.85528        42.31166         1.40828
C         28.17835        44.47956         1.10936
C         26.87401        43.73688         0.88546
C         28.15897        45.92544         0.87887
C         26.96165        46.63963         0.86304
C         28.27207        48.84530         0.67867
C         26.92739        48.15569         0.97339
C         28.29354        50.28905         0.26365
C         27.01626        51.01580         0.09038
C         28.27156        52.96589        -0.81483
C         27.05925        52.33112        -0.34816
C         28.23921        54.25960        -1.30791
C         26.99984        54.95905        -1.55510
C         26.97591        56.17821        -2.26842
C         29.30939        12.63544        -1.42856
C         30.48437        14.77612        -1.23279
C         29.30746        14.06554        -1.30495
C         30.52096        16.21129        -1.09340
C         29.29273        16.89833        -0.87018
C         30.56202        19.02270        -0.62221
C         29.31632        18.26342        -0.52629
C         30.59185        20.38220        -0.40657
C         29.41902        21.04760         0.19072
C         30.67830        23.23923         0.23825
C         29.45475        22.48704         0.58321
C         30.67786        24.62801         0.49980
C         29.53975        25.23650         1.17319
C         30.72540        27.42933         1.13005
C         29.83822        26.55145         1.67713
C         30.69087        28.87031         1.53437
C         29.40355        29.65003         1.59229
C         30.64309        31.77586         1.05779
C         29.40702        31.03603         1.32157
C         30.61659        33.18506         0.79331
C         29.40511        33.93497         0.85523
C         30.54040        36.00877        -0.06938
C         29.38356        35.33100         0.63668
C         30.60828        37.60485        -0.07239
C         29.26934        38.39567         0.24224
C         30.66685        40.15651         1.58096
C         29.37589        39.42226         1.47214
C         30.65802        41.62710         1.93406
C         29.31401        42.42041         2.00338
C         30.59400        44.61593         1.57933
C         29.34261        43.83623         1.43970
C         30.60657        45.99509         1.04572
C         29.42057        46.61594         0.72803
C         30.71139        48.71306         0.15951
C         29.38835        47.98729         0.09484
C         30.80303        50.13832        -0.32685
C         29.50433        50.89752        -0.33810
C         29.48380        52.17388        -0.80745
C         31.74308        16.91799        -1.10748
C         33.00521        19.05932        -1.03026
C         31.79962        18.32612        -0.96414
C         33.04584        20.47707        -0.92114
C         31.73213        21.22099        -0.90340
C         32.98359        23.36133        -0.52301
C         31.80121        22.61420        -0.31918
C         32.97481        24.77335        -0.33535
C         31.80071        25.40837         0.12942
C         33.03356        27.62270         0.15433
C         31.69153        26.92010         0.09258
C         33.09590        28.92182         0.58815
C         31.93861        29.62631         1.21157
C         33.13323        31.82390         1.15206
C         31.86587        31.08504         1.03453
C         33.12608        33.29643         0.91949
C         31.87577        33.84904         0.26696
C         33.05651        36.04086         0.31029
C         31.86846        35.35971         0.28799
C         33.05811        37.50369         0.37932
C         31.84505        38.19566         0.58465
C         33.11177        40.25079         0.95572
C         31.89155        39.55824         0.97686
C         33.26966        41.67980         1.45134
C         31.95268        42.38041         1.80490
C         33.12576        44.59920         1.19409
C         31.92147        43.89172         1.70136
C         33.07143        46.04023         1.10124
C         31.87100        46.69650         0.95103
C         31.84119        48.09944         0.58281
C         34.21091        21.23149        -1.00038
C         35.37059        23.40881        -1.05941
C         34.20811        22.66865        -0.89616
C         35.39602        24.84383        -0.96320
C         34.16868        25.55664        -0.63001
C         35.36711        27.72648        -0.80760
C         34.17931        26.94043        -0.42729
C         35.48224        29.15561        -0.35397
C         34.29754        29.75344         0.34206
C         35.73037        31.78887         1.00151
C         34.42556        31.06018         1.06803
C         35.69182        33.30098         0.94458
C         34.40760        34.00326         0.71342
C         35.57713        36.07496         0.11703
C         34.35867        35.35007         0.41669
C         35.47711        37.51302        -0.18584
C         34.26653        38.22440         0.27623
C         35.51522        40.38613         0.23779
C         34.27959        39.61648         0.46240
C         35.43982        41.77929         0.26187
C         34.10280        42.44487         0.41221
C         34.19498        43.91471         0.69566
C         36.60734        25.51769        -1.06722
C         37.93106        27.70756        -0.97393
C         36.67053        26.97315        -1.12194
C         37.97314        29.06125        -0.60478
C         36.80637        29.76670        -0.20560
C         38.10992        31.89161        -0.02280
C         37.02449        31.03877         0.60179
C         38.11358        33.26484         0.01738
C         36.93788        34.03739         0.48883
C         38.02649        36.15936        -0.28054
C         36.80237        35.43664         0.03540
C         38.02901        37.54123        -0.33286
C         36.77895        38.30267        -0.33438
C         36.73166        39.72630        -0.02733
C         39.22695        29.78958        -0.65536
C         40.46815        31.91934        -0.79578
C         39.27636        31.16300        -0.48894
C         40.46793        33.28118        -0.76016
C         39.27587        34.01970        -0.41443
C         39.24179        35.40333        -0.46385
O         31.48740        41.91142         3.11058
O         18.82100        27.07627        -0.40225
O         25.46754         9.26542         0.34998
O         24.74030        29.58705         2.78161
O         16.17660        41.74672         1.31471
O         28.61656        49.82827         1.67878
O         34.50436        30.01886        -1.10022
O         17.31280        29.28532         2.28594
O         21.35196        13.63225         2.02561
O         36.59601        33.90905         1.91767
O         13.97861        44.36649        -1.76949
O         23.70547        22.96543        -0.22023
O         18.79297        53.39646         1.46086
O         10.52782        35.76039         1.14141
O         21.45693        22.73230         2.83954
O         18.62829        50.82711         2.04989
O         24.07204        11.71638         1.39295
O         23.60170        55.93695        -3.56171
O         24.41020        14.17771         1.80072
O         21.37055        48.27243         2.13849
O         25.72257        23.57437         2.70174
O         21.68078        50.84943         2.03681
O         23.32723        28.22359        -0.41714
O         20.00679        16.08842         2.42399
O         16.75139        47.25538         1.66009
O         29.67170        21.41545         1.59843
O         22.67146        53.51416         1.06449
O         26.41634        48.56162        -1.30749
O         20.10062        30.89446        -0.87130
O         22.39412        53.83397        -2.45437
O         23.39591        39.79103         2.41260
O         14.36251        33.53342        -1.98293
O         31.64528        29.19590         2.61187
O         15.09102        18.54067        -0.86748
O         30.19140        39.19046         2.63766
O         33.01841        32.78366         2.27635
O         35.23072        31.19120         2.26296
O         18.10900        23.86906         2.69429
O         25.29811        53.17365         1.06917
O         27.32329        21.09476        -1.11825
O         18.83351        16.33659        -1.02124
O          9.38192        30.50248         1.62908
O         29.02206        47.81344        -1.31175
O         26.58659        39.18642        -0.53025
O         25.57489        14.31234        -1.78413
O         20.41532        35.57898        -1.51773
O         35.90861        37.92722        -1.51164
O         31.30021        44.49978         2.87137
O         29.12761        27.00482         2.79893
O         22.64702         9.35850         0.74036
O         17.81543        37.78422        -2.01335
O         35.78616        27.53972        -2.18368
O         20.86516        45.42043        -1.24166
O         18.66629        18.61506         2.37923
O         11.36850        31.19375        -1.28267
O         24.06194        47.83361        -1.32462
H         24.92991        47.89821        -1.82994
O         25.70278        44.51836         2.83072
H         25.13456        45.24277         3.16604
O         26.53186        48.45399         2.30823
H         27.01203        49.27136         2.58254
O          8.04812        36.43643         1.57738
H          8.94171        36.54820         1.98074
O         22.25544        12.92013        -1.45627
H         21.39473        13.26048        -1.78153
O         28.30125        36.32017         2.45500
H         28.30088        35.42992         2.86973
O         30.28683        35.58696        -1.45655
H         30.23833        36.42455        -1.99224
O         24.98295        16.85549         2.11736
H         24.92514        15.94840         2.50255
O         21.30794        40.23932        -1.65817
H         21.19685        39.32637        -2.00027
O         27.84442        14.57398        -3.02641
H         26.87774        14.52081        -3.21350
O         22.75696        37.15297         2.64985
H         22.75911        38.04774         3.06250
O         25.09597        27.14188         3.32139
H         24.83140        27.99444         3.73965
O         31.40385        21.46546        -2.32568
H         31.38931        20.59518        -2.77893
O         31.13802        27.26342        -1.22235
H         31.78895        26.98876        -1.90322
O         12.12717        18.28462        -0.14408
H         12.42846        18.42731        -1.06559
O         16.82269        44.14447         1.84994
H         16.30237        43.39284         2.21874
O         18.42889        20.27909        -0.85245
H         18.33057        21.19144        -1.19639
O         37.63832        30.56467         1.84135
H         36.92305        30.52570         2.52084
O         17.82014        15.89204        -1.94759
H         17.22680        16.67974        -2.02964
O         13.22044        29.16523         2.38470
H         14.06019        28.81515         2.75477
O         25.29847        26.67665        -0.26629
H         24.73666        27.14922        -0.92661
O         31.40837        50.15663        -1.66949
H         28.03690        48.02040        -1.41649
O         12.01412        34.99289        -2.13830
H         12.83851        34.44797        -2.34516
O         24.73722        33.88836        -1.28920
H         23.92349        34.24663        -1.70537
O         27.70882        16.97850        -2.56091
H         27.96295        16.33407        -3.26798
O         24.23204         9.29498        -3.08546
H         24.46709         8.71612        -3.84730
O         23.85636        49.12204         2.09737
H         23.08682        49.44816         2.62295
O         22.79066        50.09749        -1.30960
H         23.27974        49.31078        -1.68360
O         34.05509        41.63982         2.65886
H         33.43228        41.45605         3.39878
O         10.25926        27.30564         2.23096
H         10.82698        27.89278         2.77425
O         26.88106        38.45346         2.73739
H         27.77643        38.05471         2.85067
O         25.57085         6.88687        -4.29649
H         25.35302         6.10676        -4.84880
O         26.70316        43.64447        -0.55697
H         27.36934        43.02131        -0.91477
O         14.46987        30.87399        -1.53981
H         14.42036        31.82632        -1.89553
O         14.77119        39.59045        -2.58267
H         15.52758        39.00771        -2.81195
O         10.08351        26.90146        -1.39724
H          9.44706        26.44817        -1.98882
O         30.36560        49.83009        -2.62922
H         29.99059        48.96397        -2.28844
O         30.89090        37.93899        -1.46615
H         31.85219        37.83502        -1.62790
O         31.97358        33.45176        -1.13762
H         31.30895        34.00075        -1.62541
O         29.05152        42.61396         3.41872
H         29.90575        42.90216         3.82124
O         29.13039        39.32293        -0.84038
H         28.15517        39.49825        -0.97092
O         33.37779        42.29531        -0.85609
H         33.90490        42.72672        -1.56119
O         19.66727        30.11776         2.63514
H         18.77813        30.06805         3.06449
O         24.06811        18.00073        -1.22725
H         24.16442        18.87092        -1.66879
O          8.51697        33.11862        -2.08493
H          7.74630        32.63596        -2.45238
H          4.86908        31.27911        -0.45449
H          4.88634        33.72301        -0.60010
H          7.36472        26.90172        -0.16120
H          6.07086        29.10508        -0.10411
H          6.09637        35.83667        -0.16131
H          7.45341        38.09959        -0.49237
H          9.86146        22.56759         0.40384
H          8.64281        24.70313         0.09050
H          8.68872        40.17771        -0.77064
H          9.92433        42.28169        -0.76648
H         12.86889        18.45403         1.76799
H         11.10386        20.42698         0.54380
H         11.05252        44.27065        -0.09610
H         12.38967        46.73881        -0.02640
H         14.90781        13.96723         0.23658
H         13.63381        16.02882         0.66264
H         13.66193        48.68439        -0.34390
H         14.89969        50.78137        -0.37747
H         17.34556         9.80381        -0.58154
H         16.13308        11.88024        -0.09048
H         16.05427        52.83660        -0.41540
H         17.25944        55.03605        -0.80996
H         19.76294         5.66024        -1.82637
H         18.56730         7.72265        -1.10259
H         18.56592        57.11657        -1.13706
H         19.92049        59.15066        -1.77540
H         23.07999         2.53137        -3.27131
H         20.96924         3.63486        -2.54741
H         23.39759        62.02604        -3.48345
H         21.28918        61.13698        -2.50661
H         25.20433         3.83042        -3.39427
H         26.49534         5.80636        -2.74355
H         26.45025        58.57403        -3.52448
H         25.32960        60.54728        -3.91533
H         27.82338         7.82874        -2.25789
H         29.03896        10.02088        -2.10706
H         29.17060        54.72046        -1.66860
H         27.91291        56.72062        -2.46022
H         30.27061        12.13070        -1.61052
H         31.43888        14.22792        -1.21024
H         31.55112        50.68290         0.30797
H         30.40266        52.61433        -1.22149
H         32.67515        16.36057        -1.28598
H         33.95220        18.51188        -1.15736
H         34.01189        46.58740         0.93797
H         32.79320        48.65306         0.59138
H         35.17701        20.72550        -1.15451
H         36.31236        22.89127        -1.29660
H         36.33675        42.38363         0.05531
H         35.05417        44.47372         0.29238
H         37.54458        24.94381        -1.11991
H         38.87424        27.17351        -1.16226
H         38.98291        38.08555        -0.39790
H         37.66689        40.30636        -0.04170
H         40.12747        29.25039        -0.98565
H         41.37539        31.37071        -1.08838
H         41.37423        33.84587        -1.02320
H         40.15403        35.95298        -0.74023
