         404
 CSIRO Nanostructure Databank - Neutral Graphene Oxide Data Set
C          1.32739         2.04393        -0.43507
C          1.30235         3.44930        -0.53093
C          2.52642         1.36820        -0.34350
C          2.48228         4.20179        -0.53300
C          1.29775         6.40307        -0.70284
C          1.29671         7.82363        -0.68593
C          2.45961         5.65064        -0.69186
C          2.45934         8.57698        -0.66046
C          1.28714        10.75491        -0.34167
C          1.29545        12.13722        -0.24016
C          2.48414        10.01787        -0.46607
C          2.50264        12.86758        -0.25372
C          1.31064        15.07408        -0.26249
C          1.32423        16.45886        -0.28096
C          2.50943        14.32041        -0.20345
C          2.54544        17.16667        -0.19581
C          2.58507        18.61441        -0.22901
C          3.75941         2.08623        -0.32387
C          3.74294         3.52201        -0.41222
C          4.98086         1.39571        -0.22431
C          4.97356         4.23754        -0.34310
C          3.74205         6.34652        -0.88203
C          3.74023         7.88718        -0.86779
C          4.99489         5.67202        -0.50483
C          4.99607         8.58404        -0.55495
C          3.72434        10.72249        -0.44065
C          3.73145        12.14629        -0.33466
C          4.98002        10.00887        -0.47640
C          4.98025        12.85870        -0.34795
C          3.74873        15.01557        -0.12774
C          3.74579        16.43442        -0.08295
C          4.99510        14.27780        -0.21296
C          5.00192        17.17790         0.10484
C          3.75848        19.31080        -0.21821
C          5.03156        18.63748        -0.12189
C          6.20923         2.08967        -0.15797
C          6.20042         3.52980        -0.18464
C          7.44183         1.40886        -0.05362
C          7.42604         4.23327        -0.03618
C          6.15885         6.41300        -0.31921
C          6.19146         7.85678        -0.40089
C          7.37689         5.69934         0.10634
C          7.44464         8.57076        -0.33801
C          6.20644        10.71324        -0.48599
C          6.20937        12.14828        -0.48369
C          7.45070         9.99572        -0.50477
C          7.43277        12.85441        -0.65338
C          6.23162        14.95984        -0.30683
C          6.30331        16.40891        -0.03704
C          7.41334        14.26682        -0.63308
C          7.51437        17.16823        -0.37774
C          6.23890        19.29433        -0.21568
C          7.49606        18.59025        -0.32730
C          8.66334         2.10970         0.02617
C          8.65254         3.55382         0.05404
C          9.89575         1.41752         0.07447
C          9.90985         4.26540         0.13430
C          8.68994         6.46242         0.15789
C          8.67755         7.89097        -0.20190
C          9.94414         5.70523         0.06469
C          9.90811         8.56755        -0.36231
C          8.67686        10.68818        -0.65118
C          8.68839        12.13185        -0.80131
C          9.91629         9.97730        -0.61969
C          9.88287        12.80062        -1.00406
C          8.62201        15.02780        -1.00706
C          8.68921        16.48278        -0.73723
C          9.91317        14.25418        -1.20127
C          9.90036        17.17539        -0.91573
C          8.71284        19.27871        -0.48968
C          9.92537        18.58896        -0.70327
C         11.12426         2.10893         0.14245
C         11.11224         3.54399         0.18115
C         12.35851         1.40918         0.12874
C         12.39436         4.28047         0.45021
C         11.15457         6.40263        -0.13297
C         11.15042         7.84548        -0.34012
C         12.39031         5.69562        -0.06614
C         12.35194         8.53115        -0.56154
C         11.15299        10.65653        -0.77469
C         11.17288        12.07535        -1.27898
C         12.37598         9.95977        -0.70313
C         12.41400        12.84306        -0.86524
C         11.18952        14.97370        -1.05175
C         11.14984        16.42879        -1.16836
C         12.39363        14.27799        -0.84476
C         12.47862        17.18863        -0.81514
C         11.17276        19.28938        -0.56891
C         12.38389        18.62382        -0.46235
C         13.60680         2.08806         0.05396
C         13.63381         3.51886         0.07655
C         14.81966         1.37639        -0.07788
C         14.84350         4.21470        -0.09078
C         13.61073         6.34361        -0.30017
C         13.59319         7.75288        -0.72836
C         14.84998         5.65301        -0.23790
C         14.91266         8.48586        -0.85489
C         13.61507        10.69626        -0.78518
C         13.62013        12.13156        -0.70824
C         14.87859         9.98609        -0.90195
C         14.84295        12.85203        -0.35456
C         13.60423        14.99931        -0.46482
C         13.58908        16.38921        -0.33351
C         14.79893        14.25253        -0.14021
C         14.64253        17.08549         0.48685
C         13.58844        19.28829        -0.10092
C         14.74386        18.57381         0.22064
C         16.06248         2.05257        -0.11901
C         16.07372         3.48976        -0.12908
C         17.29276         1.35202        -0.13029
C         17.30765         4.19552        -0.07070
C         16.09664         6.36439        -0.28522
C         16.13636         7.78112        -0.43318
C         17.30902         5.63146        -0.06571
C         17.33538         8.50466        -0.15592
C         16.18105        10.74251        -0.50532
C         16.06235        12.15269        -0.11968
C         17.34243         9.95964        -0.07365
C         17.20351        12.81210         0.41410
C         15.98768        14.95680         0.28633
C         15.96711        16.36798         0.45067
C         17.19156        14.24693         0.55938
C         17.14438        17.07021         0.75767
C         15.95870        19.23425         0.47012
C         17.15171        18.53681         0.75810
C         18.52614         2.03611        -0.03780
C         18.52848         3.47517         0.02748
C         19.75779         1.34136         0.03181
C         19.75630         4.17125         0.24575
C         18.52077         6.33345         0.16348
C         18.49756         7.75632         0.16530
C         19.74362         5.58974         0.37965
C         19.75224         8.47285         0.42552
C         18.43012        10.67396         0.47279
C         18.37119        12.06804         0.73827
C         19.71428         9.96474         0.61926
C         19.50611        12.77321         1.40276
C         18.37364        14.96095         0.93449
C         18.35101        16.36530         0.98554
C         19.60191        14.24923         1.27216
C         19.55300        17.11983         1.51159
C         18.36604        19.22953         0.86689
C         19.60019        18.55898         1.05814
C         20.98239         2.01790         0.25130
C         20.97628         3.44851         0.40084
C         22.20950         1.32009         0.34372
C         22.18971         4.12930         0.73533
C         20.95269         6.25122         0.74087
C         20.80735         7.67535         1.21360
C         22.13691         5.55086         0.95003
C         22.16471         8.52444         1.16493
C         20.77341        10.55885         1.46397
C         20.72751        11.99926         1.82740
C         21.77886         9.76410         1.91899
C         22.06727        12.71293         1.93043
C         20.79432        14.92639         1.49281
C         20.84909        16.37358         1.31737
C         22.06177        14.20275         1.79344
C         22.02408        17.05719         1.11228
C         20.80753        19.21144         0.88607
C         22.05740        18.49511         0.85226
C         23.42191         1.99196         0.63430
C         23.39556         3.40022         0.87733
C         24.66567         1.29365         0.67425
C         24.63771         4.02933         1.47104
C         23.40788         6.29460         1.18175
C         23.36137         7.71873         1.66216
C         24.68045         5.53353         1.32005
C         24.66324         8.44866         1.91584
C         23.66791        10.72526         2.12718
C         23.28250        11.96676         1.34861
C         24.67654         9.92453         1.70897
C         24.55522        12.74455         1.08335
C         23.37264        14.90132         1.52298
C         23.33177        16.37300         1.18764
C         24.56354        14.14776         1.07591
C         24.52618        16.98383         0.62166
C         23.22627        19.12229         0.48373
C         24.46012        18.37060         0.06066
C         25.91008         1.97353         0.77284
C         25.92861         3.38716         1.01177
C         27.13879         1.29011         0.61357
C         27.13515         4.11282         0.95843
C         25.97599         6.21186         1.68163
C         25.98536         7.73376         1.77551
C         27.18146         5.53608         1.18767
C         27.15186         8.42724         1.20953
C         25.70229        10.53663         0.83253
C         25.71593        12.01532         0.74614
C         27.01562         9.80196         0.67438
C         26.90431        12.67790         0.34154
C         25.75522        14.83952         0.74028
C         25.74265        16.29575         0.64535
C         26.91538        14.10797         0.36103
C         26.98638        17.00688         0.58492
C         25.75360        19.10456         0.25956
C         26.96855        18.47726         0.47697
C         28.36988         1.98529         0.60206
C         28.37043         3.42507         0.70740
C         29.59919         1.29844         0.48648
C         29.57858         4.14960         0.59205
C         28.36168         6.27502         1.01201
C         28.33222         7.72990         0.96618
C         29.57245         5.58763         0.66926
C         29.51383         8.46316         0.54543
C         28.22409        10.58746         0.34776
C         28.12173        11.95478         0.05932
C         29.46943         9.86796         0.33660
C         29.25444        12.67900        -0.66489
C         28.15257        14.81748         0.15009
C         28.16190        16.20882         0.52321
C         29.33824        14.19334        -0.30849
C         29.43462        16.77418         0.76647
C         28.15351        19.32332         0.35550
C         29.42305        18.98263         0.78291
C         30.82617         1.99659         0.40592
C         30.81377         3.43897         0.39733
C         32.06173         1.31943         0.29866
C         32.01335         4.13960         0.17626
C         30.73814         6.33170         0.37127
C         30.73362         7.75191         0.33366
C         31.94434         5.59825        -0.03724
C         31.96608         8.49077         0.13390
C         30.68032        10.59053         0.05789
C         30.57924        11.93783        -0.46187
C         31.92130         9.92802         0.06053
C         31.70276        12.44105        -1.06589
C         30.49777        15.02794        -0.51331
C         30.56820        16.31634         0.10991
C         31.70654        14.57733        -1.15165
C         31.74104        17.20504        -0.09459
C         30.71231        19.49182         0.47771
C         31.84631        18.62572         0.40459
C         33.27828         2.02276         0.17390
C         33.25302         3.45909         0.07580
C         34.52496         1.33772         0.12656
C         34.49119         4.17207        -0.05338
C         33.24306         6.37843        -0.15924
C         33.19761         7.82624         0.07967
C         34.51711         5.62458        -0.11136
C         34.46280         8.58030         0.04399
C         33.17214        10.69246        -0.12368
C         33.07020        12.10187        -0.70478
C         34.45074        10.00751        -0.30294
C         34.24157        12.81887        -1.37736
C         32.98635        15.05223        -0.85393
C         33.02840        16.49217        -0.52620
C         34.23133        14.33339        -1.06859
C         34.32074        17.11088        -0.24669
C         33.12363        19.17946         0.46566
C         34.33982        18.45340         0.23458
C         35.73733         2.03068         0.03939
C         35.70311         3.46225        -0.02237
C         36.99886         1.31332        -0.02874
C         36.97412         4.20598        -0.03751
C         35.69921         6.32051        -0.27208
C         35.72458         7.79619        -0.19567
C         36.96819         5.64443        -0.39788
C         36.83286         8.51379        -0.87094
C         35.61606        10.69925        -0.72837
C         35.58127        12.14444        -1.03606
C         36.82437         9.98208        -0.88346
C         36.73876        12.83639        -1.28055
C         35.44198        15.01081        -1.00734
C         35.51039        16.39708        -0.54446
C         36.66313        14.32057        -1.63084
C         36.74475        17.05978        -0.34456
C         35.57851        19.06536         0.47651
C         36.78454        18.38139         0.20108
C         38.20890         1.95060        -0.17612
C         38.24400         3.42973        -0.14407
C         39.49528         1.29489        -0.25371
C         39.43404         4.09948        -0.74452
C         38.12810         6.31557        -0.70933
C         38.11420         7.74206        -1.10328
C         39.39526         5.58863        -0.95781
C         39.39295         8.49025        -1.13972
C         38.04474        10.61083        -1.41235
C         38.00534        12.10722        -1.58797
C         39.35369         9.89797        -1.25564
C         39.31730        12.83599        -1.62993
C         37.98957        15.08928        -1.42155
C         38.00941        16.45249        -0.79535
C         39.30885        14.35348        -1.50045
C         39.28389        17.04270        -0.32057
C         38.02608        19.01217         0.46303
C         39.25995        18.34960         0.25201
C         40.67560         1.98907        -0.36735
C         40.72655         3.41426        -0.58611
C         41.87705         4.16705        -0.74099
C         40.67167         6.32671        -0.95298
C         40.62659         7.78831        -1.01260
C         41.84240         5.58610        -0.90420
C         41.81272         8.55289        -0.99441
C         40.56121        10.64134        -1.22460
C         40.55852        12.10069        -1.30584
C         41.77817         9.93370        -1.09078
C         41.71052        12.83878        -1.12241
C         40.54030        15.00021        -0.99815
C         40.51472        16.37665        -0.50123
C         41.69703        14.24903        -0.95765
C         41.70956        17.04097        -0.14007
C         40.48130        18.98288         0.60563
C         41.68775        18.33230         0.39509
O          5.76310        16.75537         1.28949
O         25.98891         9.83365        -0.40607
O         23.65562        15.88053         2.56253
O         37.84851        11.21747        -2.74715
O         22.62798        10.22731         2.92559
O         31.56006        13.46999        -2.00185
O         22.84036        11.50854         0.07025
O         22.17144        13.52998         3.11367
O         39.23003         4.63763        -2.09063
O         26.21526         6.88008         2.94679
O         20.15705         9.34700        -0.65354
O         32.45054         6.00229        -1.35796
O         33.24635        11.91283         0.72633
O         32.17529        17.22958        -1.49522
O          9.10417        14.70399        -2.35477
O         35.43543         8.27862         1.15475
O          7.92349         6.17289         1.39105
O         37.83576         3.96734         1.15953
O         39.46774        13.70217        -2.79930
O         23.83586         7.94805         3.00563
O         12.04817        16.95288        -2.18645
O         38.02006        16.26052        -2.30006
O         20.40513         7.60711         2.52363
O          3.82064         7.12067        -2.12024
O         15.78480        10.51552        -1.90740
O         24.28633         6.04246         0.00797
O         29.50331        17.84902         1.63057
O         37.17413         7.98939        -2.20743
O         14.25337         7.92323        -2.03956
O         19.72939        12.34914         2.81874
O         34.08930        12.64320        -2.79813
H         34.83267        13.12573        -3.23564
O         24.54968         3.78187         2.91126
H         24.57063         2.81178         3.05265
O         12.45862         4.41253         1.93389
H         11.62433         4.84391         2.22020
O         28.90874        12.61305        -2.07437
H         29.67105        12.98261        -2.57577
O         36.40257        14.34336        -3.06438
H         36.80762        15.17248        -3.41284
O         19.35690        17.18454         2.96806
H         19.51709        16.28560         3.32884
O         24.32217        18.21806        -1.41582
H         25.14957        17.80770        -1.74814
O         22.47764         8.87130        -0.17011
H         22.59608         9.87522        -0.25055
O         14.18521        16.98139         1.88811
H         14.88316        17.37763         2.45280
O         11.24367        11.96261        -2.75094
H         12.08905        11.51454        -2.97007
H          0.37951         1.48810        -0.44429
H          0.32912         3.94955        -0.62402
H          2.54719         0.27115        -0.27663
H          0.32190         5.90379        -0.62492
H          0.31962         8.31864        -0.60081
H          0.31994        10.23517        -0.34018
H          0.33349        12.65893        -0.15301
H          0.34204        14.56083        -0.32575
H          0.38018        17.01708        -0.35695
H          1.62889        19.15291        -0.30298
H          4.97875         0.29644        -0.18402
H          3.75149        20.40827        -0.29234
H          7.45048         0.30884        -0.04310
H          6.25143        20.39005        -0.31890
H          9.89585         0.31784         0.04145
H          8.73025        20.37468        -0.39641
H         12.34663         0.30967         0.10162
H         11.13805        20.36928        -0.35893
H         14.80224         0.27681        -0.09527
H         13.60610        20.38904        -0.08127
H         17.28620         0.25218        -0.14959
H         15.99627        20.33071         0.37706
H         19.75899         0.24396        -0.05037
H         18.37140        20.31886         0.70576
H         22.22177         0.23015         0.19556
H         20.81029        20.27886         0.61566
H         24.66793         0.20957         0.48903
H         23.21232        20.20676         0.29407
H         27.13563         0.19829         0.48007
H         25.74740        20.18746         0.06105
H         29.60111         0.19905         0.44727
H         28.02045        20.27089        -0.18739
H         32.07549         0.21959         0.32156
H         30.86260        20.56451         0.28304
H         34.52973         0.23863         0.17726
H         33.21913        20.23686         0.75436
H         36.96276         0.21357         0.00782
H         35.61642        20.09275         0.86570
H         39.52222         0.19825        -0.16776
H         38.02906        20.03054         0.87724
H         41.62688         1.43606        -0.35077
H         42.85970         3.67615        -0.68440
H         42.81277         6.10042        -0.95085
H         42.78749         8.05544        -0.90550
H         42.73244        10.47510        -1.07817
H         42.67347        12.33637        -0.96417
H         42.64619        14.71580        -0.66411
H         42.68196        16.55607        -0.29260
H         40.45684        19.99302         1.03766
H         42.63385        18.82642         0.65566
