         620
 CSIRO Nanostructure Databank - Neutral Graphene Oxide Data Set
C         22.90756        27.36028        -0.32144
C         22.89303        28.71624        -0.06475
C         22.86040        31.66188         0.21122
C         22.83609        33.03809         0.22040
C         22.87369        36.00954         0.13624
C         22.92840        37.38273         0.00731
C         22.98636        40.31271        -0.27363
C         23.01530        41.68260        -0.40782
C         23.06588        44.58767        -0.78556
C         23.03690        45.94118        -0.86882
C         25.40166        24.59623        -0.88817
C         24.18734        25.29661        -0.83447
C         25.36429        27.45578        -0.56110
C         24.12367        26.67231        -0.57499
C         25.35154        28.83306        -0.04457
C         24.09305        29.48409         0.07355
C         25.29704        31.58371         0.52344
C         24.07639        30.90339         0.29262
C         25.24146        33.04175         0.75849
C         24.01997        33.81106         0.39643
C         25.33547        35.94692         0.24908
C         24.04272        35.21561         0.29871
C         25.36368        37.43282         0.29032
C         24.14674        38.12963         0.07747
C         25.41045        40.26548         0.05397
C         24.17321        39.56498        -0.04256
C         25.43658        41.69380        -0.06689
C         24.23060        42.41112        -0.30986
C         25.45652        44.53773        -0.17892
C         24.25101        43.85264        -0.38791
C         25.44062        46.00710        -0.03245
C         24.16322        46.73857        -0.37212
C         25.43411        48.74536        -1.03059
C         24.25904        48.17836        -0.72776
C         27.99212        23.14267        -1.02172
C         27.86915        24.46679        -0.56811
C         26.64410        25.20237        -0.63965
C         27.84911        27.37965         0.01102
C         26.69288        26.67703        -0.55329
C         27.80387        28.73607         0.27546
C         26.56864        29.49693         0.23762
C         27.78126        31.63146         0.73832
C         26.54452        30.90358         0.55386
C         27.82317        33.02215         0.78547
C         26.55257        33.76238         0.88863
C         27.83141        35.92426         0.91696
C         26.59454        35.20096         0.50426
C         27.82668        37.41549         0.80949
C         26.58033        38.12703         0.42944
C         27.86998        40.24178         0.43332
C         26.62556        39.54443         0.29646
C         27.89051        41.68015         0.30843
C         26.67732        42.39811         0.04969
C         27.93022        44.53208        -0.03062
C         26.69268        43.82502        -0.03526
C         27.97943        45.96407        -0.22616
C         26.73966        46.81902        -0.02582
C         27.99478        48.73315        -1.06143
C         26.70797        47.92926        -1.11079
C         28.04333        50.14668        -1.25635
C         30.42347        23.09503        -0.62682
C         29.21118        22.46830        -1.00714
C         30.38943        24.45647        -0.21245
C         29.07922        25.10353        -0.01390
C         30.35433        27.30914         0.34146
C         29.06734        26.59724         0.31731
C         30.34719        28.71652         0.47204
C         29.05321        29.39386         0.72965
C         30.32591        31.61653         0.71799
C         29.05243        30.89355         0.89903
C         30.30606        33.03157         0.65482
C         29.06546        33.75974         0.74461
C         30.30765        35.90859         0.65398
C         29.09686        35.17252         0.78788
C         30.34726        37.35192         0.63928
C         29.12377        38.10793         0.69092
C         30.33396        40.22453         0.93741
C         29.08416        39.51005         0.63754
C         30.32224        41.72100         0.88624
C         29.09981        42.40830         0.43465
C         30.40122        44.48790         0.04098
C         29.14683        43.80358         0.15279
C         30.43776        45.82788        -0.65986
C         29.16395        46.61089        -0.50637
C         30.45199        48.70039        -0.93864
C         29.20651        48.03073        -0.84100
C         30.52186        50.07287        -1.55028
C         29.22467        50.81696        -1.39556
C         32.94491        20.30540        -0.90142
C         31.75942        21.00207        -0.96132
C         32.88017        23.06994        -0.29221
C         31.68931        22.38884        -0.63847
C         32.83851        24.47762         0.01094
C         31.58125        25.16894         0.04447
C         32.80451        27.31066         0.39588
C         31.57330        26.59118         0.29083
C         32.80208        28.74003         0.40690
C         31.55060        29.44325         0.47791
C         32.74982        31.60313         0.39105
C         31.53919        30.89442         0.56545
C         32.73692        33.00839         0.35943
C         31.52255        33.75242         0.48997
C         32.70533        35.88686         0.06700
C         31.51810        35.18683         0.44282
C         32.81116        37.32632         0.16722
C         31.61116        38.01681         0.49025
C         32.90240        40.21954         0.60001
C         31.64721        39.46058         0.80883
C         32.89936        41.66853         0.63098
C         31.64523        42.44722         0.80012
C         32.83659        44.55762         0.25908
C         31.61461        43.84827         0.31642
C         32.85073        45.98445         0.01961
C         31.66641        46.64477        -0.34668
C         32.86867        48.80197        -0.34343
C         31.67117        48.04617        -0.56199
C         32.88547        50.24100        -0.59123
C         31.75172        50.86865        -1.15966
C         32.96923        52.97502        -1.25469
C         31.81964        52.22894        -1.48927
C         35.40060        18.77897        -0.25732
C         35.37137        20.18464        -0.39448
C         34.17105        20.94297        -0.56772
C         35.31174        23.03388         0.09794
C         34.14445        22.36441        -0.30195
C         35.23818        24.41059         0.59836
C         34.01762        25.18236         0.33973
C         35.27970        27.33047         0.56490
C         34.04216        26.60057         0.46322
C         35.26517        28.76082         0.43697
C         34.03565        29.44235         0.33612
C         35.28050        31.66480         0.21117
C         34.00479        30.89196        -0.07068
C         35.24065        33.04900         0.07354
C         33.93957        33.70697        -0.00279
C         35.60885        36.10508        -0.30341
C         33.76516        35.04181        -0.36541
C         35.37525        37.46284         0.10848
C         34.09615        38.06600         0.18459
C         35.37475        40.25849         0.65852
C         34.07985        39.49983         0.41155
C         35.33219        41.70761         0.25599
C         34.07110        42.39159         0.38902
C         35.26460        44.55527         0.31609
C         34.06884        43.84276         0.36121
C         35.22543        45.98811         0.79493
C         34.04316        46.73190         0.22003
C         35.22829        48.90897         0.53152
C         34.03143        48.13045         0.11291
C         35.22917        50.39277         0.31113
C         34.05094        51.01590        -0.32958
C         35.35326        53.15935        -0.51399
C         34.10957        52.38750        -0.67018
C         35.36938        54.55521        -0.71900
C         37.84432        18.73051         0.06729
C         36.59121        18.08193        -0.08752
C         37.87761        20.15424         0.03912
C         36.65697        20.88064        -0.34084
C         37.83857        23.06280         0.44733
C         36.61857        22.41240        -0.06013
C         37.81248        24.45524         0.65293
C         36.54134        25.18189         0.80982
C         37.75341        27.34812         0.64384
C         36.52801        26.64941         0.66914
C         37.74436        28.79205         0.52841
C         36.51328        29.49553         0.41975
C         37.75775        31.62407         0.42306
C         36.52185        30.93229         0.37294
C         37.77721        33.08894         0.57799
C         36.47329        33.84488         0.36258
C         37.82672        36.00870         0.77298
C         36.61110        35.30957         0.18664
C         37.85027        37.45156         0.31352
C         36.63474        38.16054         0.29798
C         37.81470        40.24685        -0.07230
C         36.63253        39.56815         0.22743
C         37.74035        41.68383        -0.36838
C         36.47877        42.39336        -0.06931
C         37.80250        44.59855        -0.18009
C         36.46880        43.86451        -0.14469
C         37.82406        45.98292         0.36132
C         36.57423        46.70689         0.70060
C         37.80261        48.95239         0.34638
C         36.56330        48.21182         0.71190
C         37.82017        50.33096         0.18895
C         36.56459        51.11903         0.26080
C         37.80046        53.23506        -0.17782
C         36.57864        52.51650        -0.22431
C         37.76286        54.64936        -0.28986
C         36.54191        55.28411        -0.57395
C         40.33477        15.89018         0.13167
C         39.13989        16.56951         0.04219
C         40.29019        18.67297         0.47701
C         39.08761        17.98392         0.20284
C         40.22642        20.10894         0.78963
C         39.03502        20.87754         0.40260
C         40.28345        22.98905         0.78737
C         39.05200        22.30164         0.53498
C         40.25391        24.45308         0.98637
C         39.00662        25.20148         0.78109
C         40.24885        27.32314         0.71362
C         38.99969        26.61614         0.75322
C         40.22777        28.79078         0.77637
C         38.97000        29.51840         0.55458
C         40.25497        31.66105         0.33055
C         38.99529        30.92533         0.45088
C         40.26135        33.09494         0.23461
C         39.05539        33.83776         0.40374
C         40.29794        35.94801         0.13694
C         39.08418        35.23506         0.41783
C         40.27732        37.37742        -0.03645
C         39.07134        38.12417         0.03321
C         40.26771        40.29272        -0.37150
C         39.05102        39.55111        -0.20905
C         40.31190        41.69127        -0.28702
C         39.06861        42.45211        -0.43616
C         40.28057        44.54653         0.14737
C         39.07726        43.87995        -0.13694
C         40.25916        46.01753         0.20240
C         39.08679        46.71841         0.15976
C         40.30522        48.92266        -0.25784
C         39.00065        48.18029        -0.04670
C         40.29208        50.38315        -0.11143
C         39.05878        51.06161        -0.05406
C         40.29070        53.18306        -0.15041
C         39.06359        52.50110        -0.08418
C         40.29339        54.65663        -0.02328
C         38.99353        55.43355        -0.04831
C         40.25864        57.55136        -0.25331
C         39.07662        56.88664        -0.31548
C         42.80166        15.89222         0.35672
C         41.55810        16.58213         0.34772
C         42.79359        18.70609         0.65493
C         41.54055        17.99595         0.52836
C         42.81240        20.12750         0.75652
C         41.55589        20.86486         0.96312
C         42.77166        23.01372         0.69866
C         41.52011        22.32541         0.80890
C         42.79350        24.46883         0.59068
C         41.56160        25.22673         0.89513
C         42.67597        27.37303         0.22646
C         41.48286        26.66997         0.61372
C         42.72321        28.76171         0.15906
C         41.53734        29.53975         0.55043
C         42.70867        31.65768         0.00141
C         41.47411        30.97426         0.23057
C         42.72289        33.06788        -0.07463
C         41.48981        33.80073         0.03307
C         42.74887        35.89309        -0.59218
C         41.49272        35.21647        -0.07482
C         42.79531        37.36780        -0.33419
C         41.50688        38.05901        -0.47767
C         42.84146        40.30689        -0.72868
C         41.51294        39.55499        -0.65472
C         42.78349        41.71988        -0.17786
C         41.53833        42.41943        -0.09254
C         42.80314        44.47824         0.61743
C         41.51318        43.82246         0.14554
C         42.81950        46.00838         0.48409
C         41.53283        46.76465         0.30405
C         42.77062        48.88346         0.00129
C         41.57095        48.19324        -0.06111
C         42.77406        50.33581        -0.06463
C         41.54114        51.06676        -0.11201
C         42.80581        53.18212        -0.19168
C         41.54782        52.49349        -0.15830
C         42.83943        54.65026        -0.42176
C         41.52553        55.40532        -0.39139
C         42.73950        57.51955        -0.08311
C         41.53240        56.86664        -0.18184
C         43.99198        16.57753         0.45919
C         45.28150        18.72355         0.57085
C         44.02735        17.99677         0.57241
C         45.28518        20.14936         0.58958
C         44.01893        20.85211         0.66344
C         45.23352        23.03549         0.55324
C         43.96714        22.28143         0.62705
C         45.17438        24.40628        -0.02626
C         43.91581        25.14717         0.19852
C         45.16963        27.31719        -0.37749
C         43.87084        26.58532        -0.13639
C         45.16512        28.78587        -0.27869
C         43.94482        29.48336        -0.12395
C         45.17589        31.61391        -0.16362
C         43.93697        30.91217        -0.09605
C         45.18999        33.03782        -0.12579
C         43.98363        33.77106        -0.13783
C         45.22360        35.93137         0.02014
C         44.00897        35.19180        -0.19305
C         45.21388        37.35964         0.09155
C         43.99271        38.07263        -0.12601
C         45.25460        40.20130        -0.12620
C         44.02460        39.51992        -0.17689
C         45.24898        41.66072        -0.40965
C         44.00270        42.41678        -0.13831
C         45.27333        44.53441         0.04726
C         44.05310        43.81111         0.08756
C         45.25238        45.98445         0.01221
C         44.06844        46.71596         0.11205
C         45.22734        48.89140        -0.03825
C         44.03293        48.15772         0.02563
C         45.24398        50.31749         0.07935
C         43.99310        51.04218         0.00679
C         45.31370        53.16830        -0.11203
C         44.00329        52.46737        -0.08487
C         45.34471        54.70106        -0.07330
C         44.05487        55.43639        -0.13954
C         43.97713        56.80389        -0.03364
C         47.72770        18.74900         0.43465
C         46.53372        18.05716         0.50306
C         47.75902        20.16798         0.44163
C         46.52801        20.84709         0.53482
C         47.77975        23.04521         0.16265
C         46.54548        22.32303         0.56415
C         47.75802        24.42535        -0.04490
C         46.46290        25.13087        -0.23678
C         47.70883        27.30391        -0.46812
C         46.45803        26.62026         0.02903
C         47.67469        28.74217        -0.53936
C         46.40532        29.47296        -0.35082
C         47.67372        31.57714        -0.11304
C         46.39040        30.87069        -0.27478
C         47.70588        33.04587         0.06212
C         46.46772        33.80675        -0.33247
C         47.69656        35.91630         0.46257
C         46.43085        35.22008         0.17188
C         47.74504        37.38307         0.35717
C         46.43802        38.10759         0.57341
C         47.73548        40.23266         0.14815
C         46.47967        39.54417         0.12961
C         47.77881        41.65143         0.03042
C         46.55675        42.40739        -0.28153
C         47.76281        44.53448         0.12893
C         46.52530        43.85711        -0.03242
C         47.79333        45.97275         0.08382
C         46.52470        46.67046        -0.24260
C         47.74103        48.89680         0.09015
C         46.50367        48.19520        -0.24345
C         47.69490        50.24180         0.36411
C         46.46477        50.99485         0.28903
C         47.67080        53.13913         0.69837
C         46.51533        52.43605         0.34803
C         47.64352        54.57110         0.80721
C         46.53415        55.31103         0.52450
C         50.26602        20.27263         0.40610
C         49.01951        20.91553         0.35096
C         50.23460        23.06781         0.00356
C         49.01460        22.33671         0.17101
C         50.20642        24.48067        -0.22662
C         48.96128        25.15918        -0.26141
C         50.13717        27.24069        -0.99862
C         48.89552        26.58006        -0.55694
C         50.10606        28.78221        -1.10464
C         48.85912        29.44024        -0.72820
C         50.18107        31.66160        -0.70175
C         48.88489        30.90611        -0.65017
C         50.17371        33.07237        -0.23023
C         49.01160        33.74685        -0.03063
C         50.25865        35.93776         0.16629
C         49.01804        35.16782         0.38067
C         50.22797        37.34734         0.21995
C         48.95607        38.05916         0.31285
C         50.20188        40.20995         0.37974
C         48.97009        39.51113         0.29490
C         50.18702        41.63052         0.43252
C         48.98409        42.35923         0.22964
C         50.21450        44.52552         0.35708
C         48.98842        43.81085         0.23787
C         50.22555        45.96316         0.37963
C         48.98241        46.67286         0.21734
C         50.22651        48.86871         0.49898
C         49.04057        48.15234        -0.09823
C         50.20838        50.21126         0.68565
C         48.91943        50.93005         0.81243
C         50.21752        53.05476         1.32523
C         48.89850        52.39578         1.09689
C         51.46035        20.98318         0.28778
C         52.72531        23.11666        -0.04811
C         51.48298        22.37569         0.07902
C         52.70062        24.52279        -0.30729
C         51.44776        25.20479        -0.42038
C         52.64674        27.29248        -0.95507
C         51.43685        26.57436        -0.76504
C         52.60895        28.74107        -1.28518
C         51.38336        29.52284        -1.01304
C         52.71122        31.59010        -0.70018
C         51.44626        30.88249        -0.78387
C         52.73793        33.00044        -0.23104
C         51.46151        33.75403         0.01611
C         52.70023        35.92305        -0.09772
C         51.47432        35.23375         0.00446
C         52.69362        37.35109        -0.00695
C         51.46197        38.05997         0.15920
C         52.69919        40.16868         0.29570
C         51.46942        39.48892         0.31419
C         52.75750        41.60672         0.60294
C         51.41622        42.37469         0.70154
C         52.67885        44.51323         0.50650
C         51.44634        43.82777         0.50103
C         52.68168        45.94770         0.54379
C         51.44888        46.64585         0.54076
C         52.73315        48.83885         0.73554
C         51.43869        48.09386         0.94926
C         52.74246        50.24259         0.74156
C         51.46528        51.04053         0.54154
C         51.37783        52.38757         1.22240
C         55.16361        23.18517        -0.04888
C         53.97740        22.47806         0.06523
C         55.17827        24.57479        -0.30646
C         53.92200        25.25155        -0.46710
C         55.14684        27.38618        -0.89834
C         53.89231        26.64821        -0.77229
C         55.16082        28.75238        -1.09837
C         53.91357        29.50827        -1.30225
C         55.17646        31.65441        -0.85077
C         53.90866        30.94942        -0.95635
C         55.17739        33.08776        -0.65983
C         53.96812        33.79040        -0.42825
C         55.16831        35.93029        -0.39215
C         53.94403        35.19962        -0.29530
C         55.16366        37.36309        -0.27715
C         53.93087        38.06683        -0.08592
C         55.16186        40.21376        -0.03068
C         53.93101        39.48465         0.04915
C         55.16983        41.65662         0.03020
C         53.95538        42.37570         0.28892
C         55.12927        44.54146         0.24012
C         53.93064        43.79801         0.37766
C         55.14360        45.94527         0.42381
C         53.92527        46.66014         0.59049
C         55.18949        48.80000         0.67915
C         53.94837        48.10242         0.68094
C         55.17431        50.21259         0.69408
C         53.98091        50.91584         0.69144
C         57.67832        24.66238        -0.09556
C         56.41541        25.29827        -0.42341
C         57.63986        27.38554        -0.86575
C         56.41162        26.67160        -0.76052
C         57.67245        28.78555        -1.01375
C         56.41890        29.51244        -1.42041
C         57.62899        31.67027        -0.94020
C         56.38743        30.96843        -0.99639
C         57.63791        33.09605        -0.83704
C         56.40379        33.80853        -0.70314
C         57.63186        35.95639        -0.63249
C         56.39524        35.23159        -0.57558
C         57.62543        37.38140        -0.52575
C         56.38503        38.08444        -0.34632
C         57.61863        40.23740        -0.29639
C         56.38276        39.51407        -0.22990
C         57.61739        41.66439        -0.19134
C         56.38163        42.36099        -0.08105
C         57.65027        44.52663         0.15236
C         56.36929        43.85582        -0.27089
C         57.64035        45.92226         0.42052
C         56.40659        46.65613         0.47579
C         57.68982        48.71212         0.83273
C         56.43428        48.05340         0.65642
C         58.86445        25.28044        -0.27750
C         60.11703        27.44177        -0.48192
C         58.94103        26.62292        -0.93865
C         60.08317        28.79323        -0.52225
C         58.87639        29.51035        -0.88404
C         60.07375        31.68934        -0.99880
C         58.86909        30.95037        -0.96574
C         60.07446        33.07370        -0.97433
C         58.87112        33.80970        -0.86819
C         60.06204        35.99989        -0.85670
C         58.86247        35.25478        -0.78996
C         60.05555        37.37905        -0.76418
C         58.85214        38.09966        -0.59278
C         60.04482        40.28999        -0.54613
C         58.85122        39.54488        -0.47927
C         60.04668        41.67190        -0.38244
C         58.85503        42.38264        -0.18024
C         60.07845        44.50968         0.36071
C         58.86064        43.81939         0.09938
C         60.08684        45.86453         0.60865
C         58.87463        46.60153         0.62991
C         58.86940        48.00984         0.84276
O         38.32184        42.06123        -1.65032
O         52.19566        33.14891         1.14611
O         28.88871        25.59903         1.37197
O         52.14409        41.94283         1.89432
O         27.68979        36.71798         2.13130
O         31.02100        39.72173         2.11919
O         36.97588        33.51654         1.73618
O         49.35308        31.51572        -1.91411
O         46.57991        47.42185        -1.51284
O         42.12032        55.01060        -1.66278
O         35.77189        24.65293         1.95045
O         35.75778        51.07302         1.49043
O         44.40406        26.82525        -1.50367
O         26.20668        35.43839        -0.88341
O         24.52158        46.44938         1.03189
O         50.02491        27.91766        -2.28377
O         37.01691        44.45745        -1.40433
O         45.73154        24.58770        -1.38000
O         41.33992        38.68758        -1.82801
O         29.00455        29.98857         2.06973
O         45.58001        53.95494        -1.31995
O         40.76586        20.41549         2.11626
O         37.42949        46.14376         1.77069
O         26.18094        27.31495        -1.77340
O         42.16327        46.60366         1.65773
O         47.70925        32.18155         1.24348
O         48.68636        51.43015         2.20382
O         34.71199        35.57685        -1.23495
O         35.76048        48.62263         1.87074
O         36.84022        21.85704        -1.40995
O         25.77567        33.45798         2.08474
O         39.67653        55.09577         1.22465
O         39.48738        48.49081        -1.41275
O         40.98254        24.87452         2.19272
O         41.03089        29.28287         1.90637
O         53.23887        29.13689        -2.56192
O         45.99991        22.93717         1.81000
O         48.38738        35.39944         1.68508
O         30.94407        42.30053         2.08070
O         45.97418        42.05082        -1.60929
O         59.16652        26.35955        -2.37834
H         59.06020        27.21639        -2.84544
O         42.84732        44.18502         2.05332
H         42.37351        44.92689         2.50102
O         56.46137        29.54949        -2.89820
H         55.54263        29.68598        -3.21917
O         46.28908        38.15932         2.05465
H         46.52565        37.27216         2.40434
O         26.87615        47.45784         1.25541
H         26.00388        47.37767         1.71063
O         43.14456        40.48448        -2.14402
H         42.75800        39.70726        -2.61344
O         51.27609        48.02050         2.41870
H         51.22644        48.93918         2.76065
O         46.46852        26.75393         1.48649
H         47.26469        26.30052         1.83628
O         56.30544        44.04372        -1.74569
H         57.11722        43.63965        -2.12120
O         51.45914        51.37740        -0.89235
H         51.44746        50.53638        -1.39852
O         35.48934        40.29068         2.13190
H         34.64966        40.65331         2.48977
O         30.54639        45.50362        -2.10522
H         29.70982        45.06021        -2.36309
O         46.62525        33.94145        -1.80286
H         45.84517        34.43419        -2.13899
O         42.67075        35.76043        -2.08042
H         42.45277        34.82360        -2.27523
O         34.92668        45.90528         2.22540
H         35.14386        46.78803         2.60871
O         37.73886        36.05619         2.22465
H         37.52277        35.13646         2.51776
O         30.67876        49.84396        -3.01300
H         30.00654        49.17870        -3.27429
O         33.88828        30.85149        -1.54844
H         33.84459        31.78125        -1.85991
O         49.29079        48.20084        -1.55307
H         48.46328        47.86568        -1.97989
O         26.68696        47.23029        -2.39399
H         26.66741        47.90424        -3.10522
H         21.96168        26.80071        -0.35972
H         21.92225        29.20747         0.08323
H         21.91173        31.13117         0.05620
H         21.87589        33.54630         0.05564
H         21.88810        35.52418         0.11981
H         21.97942        37.91885        -0.12504
H         22.01849        39.80030        -0.34676
H         22.06749        42.21132        -0.57144
H         22.18831        44.02456        -1.13066
H         22.17105        46.45856        -1.30708
H         25.35674        23.50652        -1.02357
H         23.24791        24.73196        -0.92553
H         25.45407        49.81121        -1.30245
H         23.33136        48.77215        -0.73410
H         27.10930        22.61721        -1.41131
H         27.11009        50.72792        -1.25882
H         29.22145        21.42716        -1.35455
H         29.20745        51.90704        -1.53200
H         32.94220        19.23325        -1.14090
H         30.84827        20.45866        -1.24306
H         32.97971        54.02903        -1.56064
H         30.96556        52.71997        -1.97456
H         34.46268        18.20812        -0.30132
H         34.44028        55.09805        -0.93498
H         36.54096        16.98674        -0.02533
H         36.50104        56.37712        -0.67158
H         40.35767        14.79824         0.00417
H         38.21992        16.00564        -0.16157
H         40.27387        58.64807        -0.34249
H         38.14761        57.45377        -0.46785
H         42.80470        14.79824         0.24620
H         42.76188        58.61438         0.01365
H         44.92944        16.00684         0.42892
H         44.89441        57.38965         0.12053
H         48.66283        18.17704         0.36795
H         46.57122        16.95987         0.49666
H         48.52640        55.07928         1.21953
H         46.51885        56.38058         0.77675
H         50.32241        19.18646         0.55835
H         50.21861        54.07217         1.74669
H         52.40065        20.42006         0.35254
H         52.31538        52.89391         1.49770
H         56.10647        22.63180         0.04588
H         54.03243        21.39778         0.25251
H         56.11523        50.77732         0.66702
H         54.00229        52.01335         0.64738
H         57.66722        23.66117         0.35664
H         57.71904        49.79757         0.99449
H         59.80387        24.77766        -0.00374
H         61.04410        26.91606        -0.20859
H         60.97805        29.36445        -0.23714
H         61.03618        31.16461        -1.06492
H         61.04004        33.59415        -1.01672
H         61.02526        35.48976        -0.98547
H         61.01513        37.90851        -0.82186
H         61.00684        39.78700        -0.70660
H         61.00896        42.19937        -0.41551
H         61.03075        43.96335         0.35963
H         61.03641        46.38854         0.78883
H         59.82452        48.53014         1.00342
