         640
 CSIRO Nanostructure Databank - Neutral Graphene Oxide Data Set
C         23.02108        27.31828         0.60119
C         22.98564        28.70389         0.67151
C         22.93268        31.65306         0.38400
C         22.93785        32.99821         0.15021
C         23.07625        35.90945         0.63298
C         23.09530        37.29648         0.78698
C         23.13088        40.28720         1.01989
C         23.17286        41.64922         1.06888
C         23.18121        44.60493         1.02046
C         23.21473        45.99808         1.06803
C         25.44018        24.49409         0.47354
C         24.28248        25.18943         0.39260
C         25.47136        27.35084         0.69310
C         24.24126        26.61988         0.59740
C         25.44044        28.77979         0.73346
C         24.17524        29.48145         0.71148
C         25.35575        31.69678         0.76362
C         24.13050        30.90190         0.60443
C         25.41642        33.07872         0.33245
C         24.18873        33.76094        -0.18023
C         25.46426        35.93186         0.14961
C         24.22946        35.21604         0.25991
C         25.44559        37.36005         0.16450
C         24.25337        38.03531         0.47125
C         25.46867        40.29111         0.03286
C         24.17448        39.51820         0.34700
C         25.50832        41.72807         0.32971
C         24.33064        42.40975         0.67392
C         25.57324        44.55226         0.52004
C         24.34594        43.85694         0.75809
C         25.59432        45.97963         0.51225
C         24.40087        46.69939         0.81335
C         25.56832        48.83628         0.60579
C         24.45499        48.14677         0.92250
C         28.03036        23.03905         0.51576
C         27.96079        24.46162         0.47522
C         26.70919        25.15783         0.94805
C         27.92399        27.35061         0.57369
C         26.70937        26.64678         0.68019
C         27.88860        28.77594         0.64305
C         26.68168        29.47702         0.75994
C         27.94761        31.72482         0.74378
C         26.69455        30.94653         0.94193
C         27.94628        33.06842         0.54522
C         26.72013        33.74020        -0.01223
C         27.94893        35.94477         0.02187
C         26.71574        35.24278         0.09123
C         27.95644        37.36595        -0.19757
C         26.64646        38.08304        -0.42161
C         27.93179        40.23429        -0.09232
C         26.72340        39.54663        -0.06322
C         27.95816        41.67966        -0.01504
C         26.75954        42.40761         0.20755
C         28.00680        44.53747         0.09113
C         26.78300        43.83630         0.28149
C         28.00928        45.97567         0.08130
C         26.81074        46.67680         0.24305
C         28.08026        48.86902         0.31921
C         26.76176        48.16752        -0.03406
C         28.09986        50.29538        -0.16033
C         30.29000        23.10423        -0.52683
C         29.14912        22.36217         0.11498
C         30.35939        24.52087        -0.02893
C         29.16724        25.19451         0.27185
C         30.37828        27.33389         0.11379
C         29.18586        26.64602         0.39113
C         30.32727        28.80886         0.02708
C         29.18416        29.49416         0.70647
C         30.44723        31.71619         0.40599
C         29.22332        30.98351         0.80889
C         30.45921        33.11125         0.43859
C         29.20449        33.87402         0.78677
C         30.41601        35.94560         0.03397
C         29.18926        35.26785         0.20754
C         30.42042        37.35441        -0.25677
C         29.15704        38.06427        -0.29216
C         30.35815        40.21912        -0.51931
C         29.16679        39.51811        -0.32305
C         30.39307        41.64232        -0.44255
C         29.19135        42.37606        -0.18214
C         30.44030        44.51437        -0.32794
C         29.20853        43.80758        -0.13877
C         30.46443        45.93974        -0.33653
C         29.26055        46.68872        -0.14380
C         30.50461        48.78906        -0.46154
C         29.29533        48.09067        -0.14745
C         30.50276        50.20594        -0.63154
C         29.24201        50.90891        -0.54154
C         32.84101        20.29816        -0.88663
C         31.64048        20.99051        -0.73021
C         32.84160        23.09214        -0.51220
C         31.61128        22.37058        -0.51797
C         32.87406        24.50591        -0.30008
C         31.66840        25.20172         0.25945
C         32.84544        27.38192        -0.26513
C         31.63927        26.68470        -0.04162
C         32.83013        28.84187        -0.72533
C         31.55517        29.58012        -0.31512
C         32.85707        31.66876         0.10172
C         31.62686        31.00313         0.08987
C         32.89271        33.08447         0.17903
C         31.67574        33.81080         0.23617
C         32.89091        35.92726        -0.10925
C         31.66857        35.24392         0.09259
C         32.87699        37.33828        -0.39277
C         31.63029        38.03150        -0.48512
C         32.85954        40.20771        -1.02133
C         31.53830        39.43924        -1.06136
C         32.86255        41.65445        -0.72598
C         31.63895        42.35398        -0.56059
C         32.89779        44.47765        -0.53159
C         31.65166        43.78019        -0.48129
C         32.91931        45.91047        -0.59964
C         31.70300        46.63476        -0.53010
C         32.93665        48.74438        -0.96664
C         31.71458        48.05736        -0.64416
C         32.91831        50.15658        -1.13979
C         31.71586        50.88606        -0.96911
C         32.95117        53.00573        -1.22584
C         31.75995        52.31706        -1.07585
C         35.36987        18.84350        -1.04910
C         35.34863        20.26005        -1.01521
C         34.07705        20.98068        -0.91777
C         35.29492        23.15529        -0.90689
C         34.05337        22.38613        -0.77119
C         35.30638        24.56222        -0.51360
C         34.09391        25.23668        -0.32093
C         35.34827        27.38592        -0.36279
C         34.09441        26.69741        -0.26393
C         35.38354        28.87326        -0.67437
C         34.09551        29.58476        -0.33919
C         35.31731        31.60183         0.54031
C         34.09096        30.89770         0.01180
C         35.36091        33.07707         0.19068
C         34.15548        33.78742         0.10222
C         35.37067        35.90279        -0.19801
C         34.14014        35.21366        -0.06937
C         35.35091        37.33147        -0.38737
C         34.12329        38.00978        -0.54201
C         35.38796        40.21127        -0.53211
C         34.15650        39.45680        -0.84369
C         35.35511        41.59801        -0.49567
C         34.10171        42.33600        -0.58877
C         35.36491        44.49864        -0.18482
C         34.10334        43.74473        -0.48964
C         35.39028        45.89954        -0.73641
C         34.16053        46.61197        -0.81410
C         35.42972        48.66879        -1.50947
C         34.14743        48.00437        -1.06962
C         35.43299        50.16274        -1.33375
C         34.14718        50.86435        -1.67718
C         35.43213        53.02950        -1.39489
C         34.18142        52.34108        -1.38943
C         35.48920        54.45352        -1.44714
C         37.81349        18.81039        -0.99839
C         36.55805        18.14495        -1.03936
C         37.82110        20.24241        -0.97354
C         36.59181        20.94164        -0.98646
C         37.86626        23.14420        -0.73256
C         36.61155        22.41831        -1.04128
C         37.85390        24.51520        -0.50137
C         36.58383        25.22145        -0.08890
C         37.82760        27.41102        -0.30881
C         36.57022        26.70916        -0.32440
C         37.85320        28.81230        -0.18725
C         36.61684        29.56324        -0.13333
C         37.85957        31.60108         0.65077
C         36.60293        30.87716         0.24144
C         37.85064        33.06693         0.25329
C         36.61633        33.75853         0.12330
C         37.84617        35.86017        -0.24124
C         36.61168        35.18078        -0.10928
C         37.83442        37.29549        -0.56827
C         36.58671        38.05932        -0.47232
C         37.86808        40.18101        -0.32435
C         36.62579        39.46771        -0.46990
C         37.85809        41.61880        -0.23229
C         36.59939        42.34291        -0.39535
C         37.92041        44.43157        -0.63268
C         36.60407        43.71282        -0.47102
C         37.84444        45.91772        -0.42404
C         36.63473        46.59873        -0.73182
C         37.86509        48.71610        -0.85065
C         36.66326        48.00803        -0.95490
C         37.88172        50.14941        -1.05298
C         36.62764        50.85790        -1.22910
C         37.90738        52.99651        -1.29617
C         36.66084        52.30515        -1.31798
C         37.92872        54.42399        -1.36776
C         36.69010        55.12011        -1.44837
C         40.26246        15.97549        -0.68045
C         39.07618        16.66556        -0.87771
C         40.34365        18.80236        -1.15595
C         39.03867        18.07361        -0.95783
C         40.29546        20.27014        -0.82235
C         39.08415        20.96787        -0.87892
C         40.31758        23.10254        -0.66639
C         39.09475        22.40462        -0.76380
C         40.32006        24.53929        -0.56343
C         39.08137        25.24794        -0.43658
C         40.31269        27.36935        -0.29134
C         39.07359        26.66805        -0.32270
C         40.34390        28.79236        -0.18223
C         39.09946        29.52697        -0.03729
C         40.40974        31.60019         0.50795
C         39.11392        30.88169         0.23968
C         40.34165        33.07514         0.19396
C         39.08531        33.75764         0.13068
C         40.32348        35.90471        -0.02994
C         39.08002        35.18147        -0.09430
C         40.35216        37.32590        -0.01842
C         39.15758        38.06907        -0.41807
C         40.29932        40.19186         0.17768
C         39.09214        39.50875        -0.16927
C         40.26259        41.64097         0.35897
C         39.00655        42.30553         0.13480
C         40.11847        44.56472         0.75786
C         38.94444        43.78285         0.26016
C         40.23995        45.97489         0.28546
C         39.04251        46.62699        -0.19163
C         40.31805        48.69548        -0.48669
C         39.07413        48.02968        -0.46535
C         40.34877        50.06792        -1.01409
C         39.09380        50.84388        -1.07289
C         40.38842        52.97073        -1.13317
C         39.14262        52.26716        -1.19492
C         40.39809        54.40416        -1.18466
C         39.17981        55.13051        -1.32572
C         40.41920        57.23547        -1.30151
C         39.22883        56.55419        -1.39809
C         42.64536        15.98779         0.01123
C         41.48438        16.67841        -0.42358
C         42.69463        18.79729        -0.21341
C         41.52057        18.08717        -0.54340
C         42.73833        20.23856        -0.32727
C         41.52770        20.95684        -0.59174
C         42.79895        23.06353        -0.49127
C         41.55098        22.37709        -0.57944
C         42.82505        24.52131        -0.89362
C         41.54221        25.24168        -0.54823
C         42.79223        27.35141        -0.36472
C         41.54520        26.64048        -0.38623
C         42.78062        28.75179        -0.38388
C         41.57167        29.48884        -0.25015
C         42.78068        31.65322        -0.28496
C         41.61753        30.92890        -0.10222
C         42.81747        33.08630        -0.03964
C         41.55342        33.77782         0.10513
C         42.78472        35.91833         0.23139
C         41.55407        35.20703         0.09542
C         42.78070        37.33150         0.43794
C         41.52448        38.04137         0.30011
C         42.78724        40.20325         0.49709
C         41.48442        39.46554         0.36756
C         42.62170        41.60364         1.05455
C         41.38682        42.35038         0.75983
C         42.64059        44.54194         1.25658
C         41.30999        43.75963         1.32995
C         42.66418        46.00890         0.88250
C         41.43716        46.67858         0.36510
C         42.75534        48.77672        -0.02996
C         41.51401        48.04678        -0.08357
C         42.82948        50.12023        -0.38777
C         41.66417        50.81213        -0.96855
C         42.84898        52.97004        -0.81975
C         41.62789        52.28433        -0.95793
C         42.86711        54.40701        -0.89613
C         41.63869        55.10908        -1.07425
C         42.86673        57.23886        -0.97288
C         41.64258        56.53606        -1.12062
C         43.78096        16.68545         0.37061
C         44.97340        18.85483         0.75166
C         43.82297        18.10086         0.29427
C         45.10068        20.24257         0.43930
C         43.94658        20.93515        -0.09638
C         45.29200        23.04526        -0.27742
C         43.97633        22.35779        -0.25397
C         45.32081        24.51914        -0.34086
C         44.07127        25.25334        -0.45684
C         45.33494        27.35576        -0.00266
C         44.04112        26.62328        -0.31601
C         45.29502        28.79962        -0.41247
C         44.03977        29.45774        -0.65330
C         45.32206        31.67874        -0.50241
C         44.02882        30.98666        -0.71383
C         45.29295        33.18691        -0.56199
C         44.00888        33.80687        -0.07441
C         45.24961        35.92803         0.35713
C         44.02365        35.21988         0.17826
C         45.22976        37.31839         0.70119
C         43.98436        38.00573         0.73548
C         45.16649        40.18698         1.22040
C         43.86205        39.42174         1.27792
C         45.17440        41.53975         1.09064
C         43.92365        42.34021         1.23551
C         45.11273        44.50940         0.99109
C         43.93478        43.81978         1.13779
C         45.15012        45.95861         0.83154
C         43.97394        46.65630         0.64740
C         45.26200        48.80083         0.32009
C         43.94511        48.16173         0.67830
C         45.29595        50.15123        -0.01951
C         44.05959        50.87070        -0.31049
C         45.37412        52.94697        -0.85643
C         44.07075        52.23220        -0.61040
C         45.32749        54.43317        -0.58722
C         44.08953        55.13515        -0.75190
C         44.04874        56.55916        -0.78439
C         46.95736        18.97004         2.12557
C         45.93015        18.22679         1.57795
C         47.12852        20.30938         1.73471
C         46.27949        20.96107         0.82774
C         47.77731        23.15694         0.44068
C         46.53999        22.32289         0.25315
C         47.77189        24.49515        -0.01889
C         46.53623        25.18082        -0.31439
C         47.80047        27.39569        -0.43180
C         46.51955        26.64771        -0.69968
C         47.79506        28.79105        -0.47674
C         46.53466        29.51550        -0.86246
C         47.76758        31.69367        -0.27111
C         46.51124        30.99521        -0.50356
C         47.74654        33.11143        -0.00715
C         46.53413        33.84095        -0.01231
C         47.72622        35.91276         0.59587
C         46.50577        35.21622         0.31196
C         47.68823        37.32585         0.92014
C         46.46700        38.00540         0.98820
C         47.68924        40.19716         1.47436
C         46.40520        39.40534         1.59262
C         47.69712        41.56551         1.33229
C         46.44513        42.28373         0.97319
C         47.60329        44.52529         1.49625
C         46.41278        43.77714         0.93470
C         47.65009        45.96670         1.03699
C         46.44276        46.65690         0.80338
C         47.71658        48.75750         0.53579
C         46.46991        48.06296         0.54148
C         47.74856        50.16560         0.30784
C         46.54725        50.86497        -0.02730
C         47.78043        52.99080        -0.09944
C         46.57947        52.25547        -0.26700
C         47.74083        54.40586        -0.19737
C         46.54139        55.09558        -0.37285
C         50.41437        20.70431         1.66356
C         49.20373        21.38290         1.54706
C         50.27196        23.19021         0.36826
C         49.05267        22.56391         0.77764
C         50.24479        24.57105        -0.00367
C         49.00943        25.24545        -0.10172
C         50.24319        27.40036        -0.30447
C         49.01443        26.67519        -0.27936
C         50.21613        28.81995        -0.32323
C         49.00190        29.52800        -0.34729
C         50.20957        31.69046         0.01163
C         48.98287        30.98407        -0.24296
C         50.18267        33.06343         0.31293
C         48.96600        33.79385         0.31383
C         50.20507        35.90463         0.79125
C         48.94800        35.20124         0.58469
C         50.14677        37.34074         1.03338
C         48.94784        38.00584         1.17923
C         50.18860        40.19870         1.43891
C         48.94778        39.41155         1.78217
C         50.18407        41.66609         1.75740
C         48.90309        42.37252         1.39938
C         50.13227        44.51033         1.33837
C         48.89923        43.75950         1.34273
C         50.13766        45.92348         1.21782
C         48.89716        46.64385         1.03028
C         50.16475        48.76099         0.88728
C         48.93118        48.05135         0.80050
C         50.18203        50.18308         0.74527
C         48.97810        50.88173         0.41948
C         50.22812        52.97832         0.40910
C         49.00209        52.29589         0.24531
C         51.55423        21.21539         1.03802
C         52.74336        23.15023         0.03190
C         51.51429        22.48665         0.44643
C         52.72473        24.56571        -0.13363
C         51.48754        25.28125        -0.13970
C         52.74898        27.37883        -0.26008
C         51.49483        26.68744        -0.27553
C         52.78555        28.84284        -0.41900
C         51.47322        29.58258        -0.43824
C         52.70282        31.68106        -0.00366
C         51.47808        31.00442        -0.08068
C         52.70065        33.09902         0.22062
C         51.44884        33.70294         0.81708
C         52.70378        35.90325         0.77310
C         51.40498        35.20633         0.79548
C         52.70234        37.38008         0.95063
C         51.41954        38.06474         1.43657
C         52.55038        40.29223         0.83492
C         51.36552        39.55178         1.15601
C         52.57732        41.70404         0.93045
C         51.40456        42.40538         1.29674
C         52.61699        44.52560         1.12502
C         51.38452        43.80931         1.26636
C         52.64188        45.94127         1.24864
C         51.38175        46.63819         1.22468
C         52.60427        48.77099         1.33888
C         51.38253        48.05461         1.12185
C         52.58668        50.19913         1.36539
C         51.38801        50.90616         0.95592
C         51.38372        52.30518         0.76833
C         55.14426        23.15942        -0.40980
C         53.96186        22.47065        -0.11952
C         55.17442        24.55959        -0.44488
C         53.95607        25.27129        -0.24487
C         55.24498        27.39659         0.16307
C         53.95130        26.69738        -0.18124
C         55.26254        28.90395        -0.03061
C         54.02964        29.58191        -0.13290
C         55.20434        31.71837        -0.09502
C         53.97863        30.99064        -0.10541
C         55.12058        33.14761        -0.25934
C         53.85577        33.82500        -0.02039
C         54.94353        36.01352        -0.32608
C         53.85153        35.26894         0.07843
C         54.93843        37.45486        -0.30831
C         53.68808        38.12541         0.10869
C         54.87771        40.35437        -0.17350
C         53.64692        39.62574         0.13229
C         54.92419        41.74107         0.09288
C         53.77521        42.42554         0.60764
C         55.04747        44.55157         0.68350
C         53.81889        43.82658         0.82401
C         55.12051        45.91613         1.09622
C         53.89336        46.62734         1.36778
C         54.85747        48.81437         2.20275
C         53.81360        48.05853         1.62540
C         54.81963        50.20687         2.31276
C         53.71361        50.90108         1.83429
C         57.57835        24.67517        -1.17055
C         56.39974        25.32023        -0.69994
C         57.65740        27.41539        -0.47359
C         56.43284        26.70016        -0.44754
C         57.71425        28.78344        -0.01505
C         56.48914        29.60938         0.04853
C         57.64929        31.91757        -0.07350
C         56.47029        31.05699        -0.01700
C         57.54127        33.28145        -0.51619
C         56.25305        33.88763        -0.58810
C         57.34151        36.13319        -1.05152
C         56.07814        35.31473        -1.03874
C         57.23936        37.53862        -1.18584
C         55.99409        38.21172        -0.81736
C         57.12053        40.42037        -1.12711
C         55.98792        39.66889        -0.73417
C         57.20068        41.81289        -0.84581
C         56.10532        42.48056        -0.20680
C         57.38321        44.57475        -0.15003
C         56.18084        43.86420         0.12502
C         57.51683        45.90789         0.34350
C         56.44957        46.52457         1.07725
C         58.04334        48.31984         1.69671
C         56.80509        47.67360         1.81612
C         58.77323        25.35519        -1.22729
C         60.12249        27.31802        -0.58451
C         58.85735        26.70862        -0.79839
C         60.18064        28.53299         0.06403
C         58.98404        29.22842         0.35783
C         60.08510        32.29160         0.14103
C         58.94384        31.52444         0.35301
C         59.97350        33.54738        -0.46102
C         58.71311        34.07845        -0.74668
C         59.72273        36.27392        -1.44973
C         58.59452        35.49483        -1.12071
C         59.59742        37.63178        -1.73316
C         58.37102        38.28959        -1.57883
C         59.43154        40.54113        -2.09936
C         58.16807        39.73890        -1.97728
C         59.49548        41.84867        -1.76648
C         58.38482        42.55532        -1.16220
C         59.65992        44.69752        -1.08151
C         58.47542        43.92836        -0.81601
C         59.80059        45.96626        -0.59631
C         58.76830        46.58073         0.18566
C         59.00447        47.80838         0.83382
O         46.21369        22.36279        -1.18675
O         24.47867        39.95044        -1.02463
O         55.94459        48.16824         2.80500
O         43.13920        41.85460         2.38543
O         38.64603        37.65344        -1.73368
O         52.19083        29.28112        -1.69932
O         25.98152        31.41316         2.10055
O         33.66759        39.84031        -2.19876
O         30.49823        29.35770        -1.33763
O         53.06889        38.82683        -1.01568
O         35.95762        22.95024        -2.24296
O         38.92565        44.34584         1.60354
O         46.61435        43.04201        -0.30401
O         42.60275        45.57734         2.31026
O         59.11783        30.38037         1.13994
O         43.95254        30.23222        -1.96765
O         53.25206        36.55566         2.02351
O         41.17824        50.21118        -2.22509
O         48.16836        20.96675         2.38666
O         29.45313        30.12907         2.00097
O         46.51369        29.46870        -2.34900
H         45.62282        29.82230        -2.61330
O         43.75339        48.48653         2.11027
H         43.25119        47.74880         2.52249
O         40.62422        31.52232         1.96997
H         39.77798        31.82352         2.38378
O         35.36896        44.66362         1.29439
H         36.27743        44.93074         1.55800
O         45.56984        52.85096        -2.32827
H         46.40773        53.31824        -2.53487
O         24.23992        33.82460        -1.68816
H         23.67923        34.57957        -1.96911
O         40.57929        18.76133        -2.62369
H         40.63221        17.81470        -2.87695
O         26.71102        25.02244         2.42271
H         25.90728        25.47635         2.75516
O         35.53128        28.96659        -2.12635
H         34.64842        28.76306        -2.52074
O         31.20551        39.24156        -2.46856
H         32.06483        39.16304        -2.94736
O         32.82810        28.76353        -2.18374
H         31.87791        28.76093        -2.45702
O         26.87129        33.47682        -1.47174
H         25.99191        33.69026        -1.88677
O         35.48649        48.44003        -2.99330
H         36.36759        48.75265        -3.29477
O         50.23240        41.70872         3.24337
H         49.64115        40.98417         3.56652
O         43.27903        40.40010        -0.86247
H         43.26017        39.53559        -1.32525
O         34.01178        50.75631        -3.15253
H         34.30389        49.83890        -3.39004
O         29.94232        23.20320        -1.97325
H         29.08661        23.68052        -2.02955
O         38.37269        44.23154        -2.00899
H         37.68025        44.57870        -2.60979
O         46.22604        39.14559         3.03900
H         47.12936        39.00411         3.42099
O         42.87604        24.51385        -2.36388
H         43.77216        24.21345        -2.62861
O         29.23585        34.07929         2.24653
H         29.29412        33.19541         2.66986
O         26.60132        48.31142        -1.47769
H         25.77368        47.85347        -1.73450
O         46.29057        26.67748        -2.12892
H         46.42137        27.61178        -2.43816
O         47.34991        44.57488         2.93866
H         48.12128        45.00244         3.36703
O         35.15540        31.56452         2.00304
H         36.00770        31.88797         2.38590
O         57.59864        39.67172        -3.33816
H         57.41529        40.59222        -3.62264
O         55.66867        35.22722        -2.45277
H         55.61060        36.14364        -2.79915
O         41.04687        43.55170         2.73281
H         41.31939        44.37084         3.20332
O         26.39967        38.06403        -1.87577
H         25.62936        38.66453        -2.02597
O         43.43769        39.27203         2.64954
H         44.25271        39.17617         3.19515
O         37.87761        31.61730         2.15814
H         37.86738        30.67666         2.44330
O         48.97252        39.19844         3.24853
H         49.81185        38.69193         3.42751
O         51.52497        33.33235         2.25227
H         50.71233        33.67287         2.68350
O         31.83091        25.07747         1.73807
H         31.02360        25.45963         2.14659
O         36.56800        25.04536         1.39396
H         35.79162        25.54045         1.73591
O         51.42605        38.00281         2.90484
H         52.05944        37.27572         3.14107
O         45.30941        33.49543        -2.00812
H         46.11324        33.08100        -2.38889
O         55.37487        27.20387         1.62146
H         56.24355        27.57585         1.88595
O         28.14648        48.90058         1.77903
H         28.98488        49.34158         2.03064
O         45.58272        27.25759         1.43672
H         44.82780        27.67508         1.90180
H         22.08027        26.75284         0.53309
H         22.00866        29.20518         0.67252
H         21.96156        31.14023         0.44700
H         21.97195        33.50588         0.00982
H         22.12809        35.37372         0.77723
H         22.16370        37.81562         1.04871
H         22.31113        39.75492         1.52252
H         22.33506        42.17777         1.54441
H         22.22448        44.09523         1.19577
H         22.29706        46.55733         1.30080
H         25.43824        23.40825         0.30150
H         23.34242        24.67759         0.13566
H         25.58013        49.92980         0.72090
H         23.56682        48.66736         1.31225
H         27.17449        22.47472         0.91340
H         27.16488        50.87282        -0.12732
H         29.16770        21.26477         0.16585
H         29.19878        51.96786        -0.83140
H         32.79834        19.21005        -1.02243
H         30.70102        20.42413        -0.78698
H         32.92229        54.10258        -1.16141
H         30.84033        52.90075        -0.94137
H         34.43163        18.27540        -1.08389
H         34.56221        55.03692        -1.52139
H         36.51899        17.04861        -1.07446
H         36.67671        56.21579        -1.50908
H         40.25366        14.87900        -0.60499
H         38.14329        16.08627        -0.92013
H         40.43416        58.33371        -1.35179
H         38.30433        57.13079        -1.52937
H         42.62437        14.89062         0.07786
H         42.86001        58.33779        -1.00782
H         44.66302        16.12427         0.70661
H         44.97633        57.13660        -0.67812
H         47.66666        18.52613         2.83530
H         45.82371        17.17021         1.85354
H         48.65455        54.99342        -0.04224
H         46.56986        56.19162        -0.30426
H         50.46813        19.79016         2.26840
H         50.28252        54.06466         0.26068
H         52.50274        20.66859         1.11987
H         52.30998        52.88220         0.88950
H         56.06634        22.58121        -0.56019
H         53.99753        21.37576        -0.03500
H         55.66097        50.73697         2.77683
H         53.70249        51.99643         1.90015
H         57.54601        23.61463        -1.45449
H         58.24017        49.21805         2.29593
H         59.69284        24.83719        -1.53562
H         61.04010        26.77184        -0.84452
H         61.14068        28.98155         0.35059
H         61.05791        31.92101         0.48798
H         60.88297        34.14236        -0.61209
H         60.71365        35.81050        -1.54363
H         60.49007        38.18509        -2.05390
H         60.29734        40.07586        -2.59161
H         60.43413        42.38965        -1.94916
H         60.48313        44.25540        -1.65723
H         60.73019        46.52702        -0.77145
H         59.97325        48.31261         0.71176
