         410
 CSIRO Nanostructure Databank - Neutral Graphene Oxide Data Set
C         27.95148        27.26698         0.67776
C         27.89661        28.64670         0.37502
C         26.64013        29.37353         0.29179
C         27.77925        31.44771        -0.41168
C         26.57045        30.68853        -0.03635
C         27.76701        32.93255        -0.59219
C         26.73400        33.44648        -1.31726
C         27.96734        35.49597        -1.74608
C         26.81541        34.75618        -1.87669
C         27.98046        37.78811        -1.89439
C         26.81326        38.53927        -2.03841
C         27.90067        40.40262        -0.92202
C         26.75124        39.81379        -1.48305
C         27.89685        41.78348        -0.47674
C         26.69129        42.57897        -0.56732
C         27.80100        44.57921         0.33010
C         26.65188        43.90470        -0.27251
C         27.92363        46.03985         0.26748
C         30.39761        27.28474         0.54241
C         29.16915        26.60460         0.73566
C         30.35989        28.68494         0.33668
C         29.11274        29.33885         0.21816
C         30.29001        31.55782         0.08678
C         29.08322        30.74629        -0.22350
C         30.21639        33.05075         0.10479
C         28.90920        33.83474        -0.11871
C         30.21866        35.95962        -0.74334
C         29.09670        35.13581        -0.93179
C         30.27846        37.41630        -0.94584
C         29.10899        38.24837        -1.18495
C         30.34423        40.28429        -0.52309
C         29.11073        39.63803        -0.83688
C         30.35278        41.68807        -0.22352
C         29.10442        42.38580        -0.10364
C         30.37871        44.52185         0.40740
C         29.11665        43.77103         0.39647
C         30.36957        45.93031         0.58136
C         29.11464        46.65333         0.47187
C         32.93333        24.49239         0.35384
C         31.73570        25.17773         0.52409
C         32.89052        27.31008         0.27697
C         31.67708        26.58299         0.46504
C         32.86545        28.74819         0.20008
C         31.59544        29.44613         0.18091
C         32.80772        31.57926        -0.17880
C         31.57259        30.82083         0.04310
C         32.76560        33.09116        -0.22967
C         31.49589        33.83707         0.06699
C         32.78568        35.93059        -0.53294
C         31.47487        35.31633        -0.21977
C         32.76242        37.34674        -0.87907
C         31.49621        38.10919        -0.76182
C         32.80612        40.24169        -0.44677
C         31.55732        39.53669        -0.60569
C         32.81211        41.66805        -0.20417
C         31.57920        42.38259        -0.05209
C         32.82326        44.50114         0.36029
C         31.59611        43.80509         0.23392
C         32.84141        45.91132         0.66514
C         31.60101        46.63029         0.73913
C         32.80724        48.69536         1.29270
C         31.64667        48.04363         1.01503
C         35.48542        23.10081        -0.03469
C         35.38654        24.47161        -0.12804
C         34.13985        25.17716         0.12223
C         35.36907        27.32057         0.03994
C         34.12928        26.60342         0.11563
C         35.32905        28.74784         0.38956
C         34.06355        29.48522         0.21919
C         35.27698        31.66217         0.17427
C         34.09000        30.90417         0.09033
C         35.24407        33.11940         0.07599
C         34.03602        33.82596        -0.09952
C         35.26532        35.95328        -0.30132
C         34.00237        35.24507        -0.30891
C         35.29494        37.35091        -0.44625
C         34.08656        38.11430        -0.78465
C         35.27281        40.21637        -0.22729
C         34.04279        39.55200        -0.48052
C         35.28992        41.66016        -0.11232
C         34.03800        42.37013        -0.11539
C         35.26768        44.48141         0.22101
C         34.05763        43.79459         0.14694
C         35.31564        45.83704         0.76981
C         34.06354        46.56852         0.94102
C         35.41404        48.78738         1.19103
C         34.09152        47.98743         1.32555
C         35.40821        50.24987         0.90650
C         37.87949        23.04574        -0.54585
C         36.71461        22.40204        -0.23205
C         37.86594        24.49536        -0.82332
C         36.56330        25.25347        -0.57557
C         37.82297        27.44653        -0.32825
C         36.59894        26.70820        -0.27044
C         37.85905        28.83422        -0.03657
C         36.61626        29.52700         0.35650
C         37.75354        31.69038         0.29556
C         36.55000        30.99585         0.24969
C         37.69650        33.14349         0.69306
C         36.46382        33.85094         0.19114
C         37.73093        35.96330         0.06618
C         36.48013        35.24128         0.00901
C         37.73600        37.33857        -0.16871
C         36.51432        38.06951        -0.32157
C         37.75241        40.19098         0.00870
C         36.49030        39.49050        -0.25480
C         37.77301        41.70785         0.13157
C         36.49323        42.36756        -0.06054
C         37.80817        44.51276        -0.05736
C         36.49874        43.83170        -0.35191
C         37.75909        45.97995        -0.08948
C         36.62690        46.62329         0.63554
C         37.83251        48.78597         0.60967
C         36.64166        48.09038         0.73570
C         37.85494        50.18575         1.20080
C         36.57492        50.91026         0.83499
C         40.36484        20.25701        -0.00797
C         39.22566        20.88165        -0.38863
C         40.32261        23.10690        -0.05492
C         39.20006        22.34727        -0.78197
C         40.40934        24.57660        -0.40900
C         39.17143        25.25483        -0.81880
C         40.36874        27.45461        -0.25386
C         39.11924        26.77748        -0.64452
C         40.36980        28.95643        -0.39838
C         39.04662        29.60219        -0.04996
C         40.23104        31.73130         0.42178
C         39.00737        30.99735         0.21323
C         40.19947        33.13433         0.64025
C         38.99548        33.87392         0.49843
C         40.21069        36.01172         0.31935
C         38.98792        35.27572         0.32066
C         40.26483        37.36408        -0.05812
C         39.01114        38.03391        -0.39682
C         40.28238        40.27684        -0.21377
C         39.02106        39.55195        -0.39984
C         40.26164        41.70957        -0.17482
C         39.04624        42.41542        -0.10670
C         40.28360        44.58730        -0.25582
C         39.02520        43.84846        -0.16031
C         40.28577        45.97175        -0.32949
C         39.03517        46.75662        -0.28019
C         40.26851        48.86092         0.22373
C         39.06745        48.16364         0.19185
C         40.32229        50.25474         0.61978
C         39.13557        50.94787         0.95240
C         40.38906        53.01575         1.19216
C         39.18872        52.32368         1.24145
C         42.84237        20.30677         0.27951
C         41.63715        20.94454         0.03446
C         42.92190        23.16411        -0.09815
C         41.63477        22.38019        -0.27060
C         42.83602        24.62149         0.11420
C         41.58037        25.29445        -0.15939
C         42.78259        27.45794         0.23988
C         41.55869        26.75349        -0.10976
C         42.74446        28.87743         0.44187
C         41.54440        29.62006         0.26966
C         42.63365        31.65698         1.06728
C         41.47678        31.00566         0.53379
C         42.71782        33.12229         1.19664
C         41.42107        33.86091         1.03380
C         42.71933        36.04178         0.50555
C         41.44030        35.37756         0.82084
C         42.71845        37.38372         0.09167
C         41.47668        38.10091        -0.04420
C         42.73231        40.21613        -0.24535
C         41.48454        39.52747        -0.20819
C         42.73011        41.66722        -0.51556
C         41.49800        42.44578        -0.31283
C         42.79903        44.56333        -0.35047
C         41.53171        43.84194        -0.33112
C         42.82651        45.99218        -0.36024
C         41.54241        46.71863        -0.49597
C         42.80367        48.88993         0.00742
C         41.52110        48.22487        -0.24356
C         42.81635        50.24130         0.37335
C         41.57178        50.94118         0.62312
C         42.84535        53.02797         0.90772
C         41.59834        52.33598         0.90545
C         44.05075        21.02603         0.42131
C         45.27552        23.17976         0.69713
C         44.11470        22.42167         0.34540
C         45.23490        24.60227         0.72246
C         44.00123        25.31931         0.44088
C         45.20966        27.47745         0.75569
C         43.98419        26.76497         0.50966
C         45.21490        28.89242         0.91448
C         43.92026        29.53429         0.92842
C         45.56395        31.90971         1.15499
C         43.73158        30.85822         1.38210
C         45.34698        33.17443         0.61526
C         44.06752        33.87683         0.86476
C         45.15743        35.90587        -0.36876
C         43.90434        35.21945         0.22776
C         45.19595        37.38201        -0.23886
C         43.96269        38.09182        -0.07387
C         45.19003        40.25855         0.08169
C         43.93944        39.51450        -0.13944
C         45.27975        41.69046        -0.16404
C         44.05119        42.41786        -0.51142
C         45.26755        44.55193        -0.17648
C         44.02888        43.87238        -0.31665
C         45.27009        45.97807        -0.16659
C         44.03761        46.68944        -0.27952
C         45.31802        48.85054         0.04473
C         44.06045        48.19744        -0.47284
C         45.31267        50.22641         0.35396
C         44.06026        50.95705         0.46396
C         44.03203        52.35138         0.70109
C         47.64850        23.17081         1.31575
C         46.52522        22.50585         0.97377
C         47.65546        24.65462         1.54109
C         46.42192        25.33857         0.99067
C         47.69700        27.45059         0.84346
C         46.43968        26.74388         0.88953
C         47.69930        28.85851         0.68570
C         46.48409        29.60481         0.85886
C         47.74894        31.67033         0.18602
C         46.59308        31.02667         0.73905
C         47.67816        33.04080        -0.17610
C         46.46931        33.79259        -0.05757
C         47.60183        35.87582        -0.89318
C         46.42615        35.16425        -0.40712
C         47.63447        37.40476        -0.75685
C         46.42451        38.04953        -0.24436
C         47.75369        40.21176        -0.13209
C         46.51446        39.46497         0.10960
C         47.74205        41.61660        -0.05626
C         46.49452        42.36303        -0.06478
C         47.73070        44.50432        -0.02914
C         46.50826        43.81489        -0.10785
C         47.73353        45.94584         0.01575
C         46.51994        46.67558        -0.06061
C         47.76735        48.79147         0.27130
C         46.53082        48.11192         0.07159
C         47.74494        50.18354         0.54027
C         46.55362        50.86896         0.62298
C         50.15664        24.64092         1.12763
C         48.94385        25.32975         1.11788
C         50.16590        27.39346         0.53556
C         48.93323        26.71954         0.83057
C         50.13876        28.78166         0.25362
C         48.93964        29.53258         0.36919
C         50.19068        31.62271        -0.22984
C         48.95683        30.92720         0.06819
C         50.19099        33.01291        -0.49592
C         48.89831        33.67556        -0.71223
C         50.17421        35.89863        -0.89710
C         48.90348        35.15404        -1.01039
C         50.15614        37.33493        -0.74008
C         48.94743        38.07597        -0.60548
C         50.21669        40.17259        -0.28099
C         48.96954        39.47471        -0.35248
C         50.22008        41.61968        -0.14826
C         48.98426        42.33728        -0.10577
C         50.21319        44.45110         0.01991
C         48.98100        43.76164        -0.03473
C         50.21847        45.89406         0.30313
C         48.96917        46.65407         0.16202
C         50.26971        48.74364         0.09101
C         49.00488        48.05454         0.22551
C         51.36722        25.29617         0.88021
C         52.68287        27.35418         0.46011
C         51.40979        26.66670         0.59597
C         52.69662        28.70175        -0.12838
C         51.36064        29.45268        -0.22111
C         52.63625        31.60368        -0.48253
C         51.41057        30.91522        -0.28002
C         52.61582        33.00444        -0.73915
C         51.39380        33.71730        -0.76044
C         52.63097        35.89731        -0.92401
C         51.37751        35.17928        -0.89984
C         52.64078        37.31052        -0.79665
C         51.40271        38.03105        -0.64254
C         52.70707        40.10095        -0.20585
C         51.41191        39.42941        -0.39758
C         52.72064        41.61863        -0.11085
C         51.43626        42.34454        -0.16614
C         52.69075        44.49800        -0.27064
C         51.44360        43.76096        -0.11439
C         52.76346        45.87908        -0.14226
C         51.55243        46.64950         0.23947
C         51.45661        48.09133        -0.01518
C         55.10511        27.53107         0.76320
C         53.88999        26.81588         0.88457
C         55.13972        28.85542         0.33613
C         53.91824        29.52212        -0.04162
C         55.13675        31.67064        -0.16148
C         53.88472        30.88924        -0.29542
C         55.13585        33.10355        -0.61357
C         53.87267        33.68105        -1.23170
C         55.07710        35.87420        -1.18215
C         53.86276        35.19154        -1.07286
C         55.10589        37.30738        -1.08350
C         53.89341        38.01632        -0.84538
C         55.14771        40.14472        -0.72220
C         53.94061        39.42241        -0.62808
C         55.15191        41.60642        -0.65281
C         53.95782        42.30374        -0.50280
C         55.23991        44.51469        -0.79610
C         53.88623        43.75163        -0.70764
C         55.21493        45.92007        -0.39195
C         54.03425        46.56382        -0.18380
C         56.38248        29.59651         0.28072
C         56.39467        30.92413         0.02045
C         56.37776        33.80344        -1.02615
C         56.31909        35.11615        -1.32671
C         56.31635        38.04824        -1.16430
C         56.33426        39.41727        -1.01348
C         56.39807        42.34630        -0.69735
C         56.45074        43.70366        -0.65750
O         36.99842        24.88716        -1.93044
O         44.14867        35.27655        -1.22589
O         38.07780        46.55247        -1.40698
O         45.83584        39.84657         1.34191
O         54.43990        44.21111        -1.97973
O         43.43050        41.99146        -1.77946
O         38.97998        38.80701        -1.65397
O         36.30947        45.95873         1.89016
O         52.84275        40.78140         1.09401
O         28.53123        30.87422        -1.57515
O         47.38926        36.75310        -2.05076
O         31.51618        34.78289         1.17247
O         33.51353        37.72807        -2.08289
O         55.01787        32.81542         0.80703
O         30.13353        32.29677         1.37144
O         41.46202        47.66373        -1.63030
O         50.97787        46.23427         1.51979
O         34.92735        48.36598         2.49896
O         44.73275        31.42927         2.17248
O         28.27796        43.98890         1.57849
O         28.06539        36.59334        -2.61042
O         48.82447        34.18209        -2.10715
O         43.55160        33.73234         2.21145
O         41.22505        34.78897         2.15051
O         36.05119        29.05147         1.64227
O         37.82666        40.81778         1.32080
O         51.97389        28.80676        -1.39441
O         39.26551        26.14942        -1.96947
O         42.40828        22.76798        -1.42898
O         32.72064        32.32084        -1.48055
O         40.56217        29.17482        -1.84726
H         40.05172        28.48471        -2.32523
O         53.96015        33.39237        -2.66133
H         53.14272        33.72435        -3.08906
O         47.58848        24.84582         3.00489
H         46.75934        24.42392         3.31505
O         44.08785        48.40638        -1.93242
H         43.19924        48.12388        -2.26514
O         28.50919        34.33132         1.19201
H         28.90444        33.72842         1.86322
O         37.82948        50.00060         2.65414
H         37.03533        49.46824         2.88101
O         39.47588        22.44200        -2.19822
H         38.65275        22.25862        -2.69567
O         40.00401        23.03026         1.36489
H         40.70162        23.50231         1.86604
O         37.51857        33.11788         2.16454
H         38.35055        32.77665         2.55784
O         36.35906        43.97645        -1.83166
H         36.78905        44.82192        -2.09328
H         27.01716        26.70828         0.83177
H         25.71929        28.82795         0.54741
H         25.60487        31.21427        -0.00575
H         25.88519        32.80638        -1.59798
H         26.03058        35.10539        -2.55923
H         25.96254        38.12395        -2.59312
H         25.81300        40.37511        -1.56817
H         25.78403        42.12002        -0.98091
H         25.75608        44.49868        -0.50726
H         27.02474        46.63323         0.04296
H         29.16485        25.52385         0.93071
H         29.14393        47.75088         0.44443
H         32.91590        23.39500         0.38288
H         30.82042        24.59262         0.68197
H         32.78611        49.75751         1.57242
H         30.70978        48.61496         1.05335
H         34.61167        22.50190         0.25452
H         34.45416        50.76464         0.72039
H         36.70622        21.31588        -0.06866
H         36.59209        51.98405         0.59632
H         40.35346        19.17939         0.21785
H         38.30996        20.28444        -0.50966
H         40.41762        54.09147         1.41668
H         38.27046        52.85586         1.52602
H         42.85508        19.21863         0.43879
H         42.85369        54.11057         1.09798
H         44.94701        20.45209         0.69155
H         44.96900        52.92322         0.72390
H         48.55840        22.59602         1.53611
H         46.56937        21.41294         0.87306
H         48.68248        50.72072         0.73556
H         46.57793        51.93413         0.88673
H         50.18981        23.56830         1.35812
H         50.25491        49.83088        -0.06753
H         52.29715        24.71266         0.91429
H         52.35802        48.65036        -0.30353
H         56.04142        27.04257         1.06839
H         53.92310        25.80911         1.32359
H         56.16923        46.44288        -0.23163
H         54.05477        47.62763         0.09178
H         57.32103        29.05597         0.47255
H         57.34175        31.48158         0.02361
H         57.33402        33.26222        -1.06203
H         57.23589        35.64128        -1.62677
H         57.26499        37.53164        -1.35895
H         57.29346        39.94185        -1.11111
H         57.34147        41.78779        -0.62966
H         57.41230        44.21734        -0.50975
