         210
 CSIRO Nanostructure Databank - Neutral Graphene Oxide Data Set
C         30.85059        31.92440        -1.77487
C         30.82708        33.16825        -1.66139
C         30.51392        36.16699        -0.34321
C         30.49694        37.40418        -0.10120
C         30.48605        40.48425         0.27369
C         30.23716        41.68036        -0.04480
C         33.06173        29.04876        -0.94700
C         32.03750        29.62984        -1.41439
C         33.03767        31.71774        -0.81216
C         31.90033        31.02149        -1.42284
C         32.99037        33.13315        -0.61537
C         31.60870        33.84153        -0.54969
C         32.82776        36.04845        -0.15649
C         31.64141        35.33785        -0.46254
C         32.81658        37.40206         0.30828
C         31.60829        38.18023         0.29261
C         32.78138        40.32820         0.71042
C         31.58226        39.61205         0.49920
C         32.87447        41.74578         0.88289
C         30.95441        42.81009         0.40868
C         32.67630        44.36567         0.03116
C         31.49291        43.96391        -0.19473
C         35.48732        27.45568         0.21823
C         35.37853        28.86694         0.06799
C         34.24830        29.57138        -0.42123
C         35.37659        31.72653         0.05877
C         34.21968        31.01444        -0.40874
C         35.35376        33.14177         0.09378
C         34.16006        33.83347        -0.28027
C         35.49278        36.06426         1.17582
C         34.06960        35.30788        -0.59964
C         35.39446        37.42069         0.75041
C         34.05216        38.07264         0.80763
C         35.27259        40.25374         0.30871
C         34.05127        39.57094         0.83004
C         35.23834        41.74140         0.09434
C         34.01687        42.48753         0.50402
C         35.22833        44.55236        -0.10551
C         33.99018        43.87518         0.15858
C         35.39773        45.93584        -0.31028
C         37.78886        27.35678         0.87073
C         36.48471        26.83585         0.63637
C         37.79685        28.81652         0.73250
C         36.58439        29.54706         0.41037
C         37.81592        31.66479         0.61121
C         36.59466        30.98573         0.39530
C         37.83567        33.10827         0.63589
C         36.50789        33.78729         0.88148
C         37.80615        35.97091         0.48079
C         36.60818        35.29109         0.82367
C         37.81011        37.39261         0.32745
C         36.56626        38.11055         0.40635
C         37.71555        40.26654        -0.05322
C         36.56779        39.55434         0.24591
C         37.72741        41.71712        -0.11352
C         36.53037        42.44452        -0.01106
C         37.74969        44.57952        -0.17273
C         36.50308        43.87415        -0.08287
C         37.78404        46.00906        -0.28785
C         36.48843        46.55736        -0.36866
C         40.19568        24.53725         1.02552
C         39.14341        25.21483         1.07292
C         40.27335        27.28603         1.19352
C         38.94568        26.61616         1.06164
C         40.29005        28.80695         1.06616
C         39.01988        29.50815         0.79859
C         40.29769        31.61781         0.73900
C         39.06032        30.93585         0.69427
C         40.31556        33.10095         0.97085
C         39.02610        33.81136         0.61632
C         40.24367        35.97002         0.32849
C         39.04224        35.25230         0.45193
C         40.24150        37.37891         0.07505
C         39.01919        38.08138         0.03932
C         40.21980        40.27896        -0.54663
C         38.91008        39.48310        -0.55595
C         40.22238        41.73390        -0.24398
C         38.99149        42.43380        -0.17254
C         40.24406        44.57092        -0.10421
C         38.99577        43.86349        -0.13121
C         40.25508        46.02588        -0.07079
C         39.01540        46.71136        -0.20629
C         40.19376        48.79350         0.16266
C         39.17812        48.11303        -0.11222
C         42.79133        24.48629         0.68405
C         41.50905        25.10536         0.92690
C         42.70506        27.29125         0.37350
C         41.51470        26.51662         0.93170
C         42.75906        28.78679         0.63800
C         41.56586        29.50008         0.75026
C         42.78038        31.63824         0.49399
C         41.54913        30.93087         0.67846
C         42.76572        33.09308         0.37294
C         41.56522        33.77709         0.47701
C         42.80293        35.99777         0.27488
C         41.52493        35.25312         0.51118
C         42.70543        37.41129        -0.14028
C         41.50586        38.06957        -0.16960
C         42.75905        40.29565        -0.14719
C         41.51861        39.53383        -0.45083
C         42.72984        41.69663        -0.07527
C         41.46127        42.42763        -0.14126
C         42.76428        44.59278        -0.20632
C         41.45677        43.84393        -0.07426
C         42.69876        46.01832         0.31573
C         41.47885        46.75152         0.19206
C         42.71123        48.73662         0.76906
C         41.46226        48.20187         0.38422
C         43.82115        25.21599         0.69206
C         45.23178        27.31857         0.50914
C         44.04724        26.59559         0.61518
C         45.23842        28.77185         0.40271
C         44.00149        29.48915         0.48844
C         45.25862        31.63461         0.25001
C         44.00457        30.92507         0.40757
C         45.26227        33.09614         0.14271
C         44.02362        33.80432         0.15868
C         45.24377        35.91080        -0.16748
C         44.04018        35.21913         0.03733
C         45.25781        37.37345        -0.39558
C         43.96150        38.14134        -0.42668
C         45.22204        40.25099         0.02987
C         43.98981        39.58855        -0.14829
C         45.21278        41.66563         0.23473
C         43.97382        42.39705         0.14150
C         45.17890        44.48232         0.59529
C         43.97662        43.80668         0.25809
C         45.13580        45.91347         0.80067
C         43.91320        46.64464         0.68394
C         43.74164        48.03034         0.90101
C         47.56506        27.40614         0.05993
C         46.54117        26.77997         0.43770
C         47.68740        28.79283        -0.10687
C         46.46031        29.48181         0.16691
C         47.77675        31.61988         0.24578
C         46.45623        30.92389         0.15563
C         47.76264        33.13511         0.48672
C         46.47986        33.80643         0.03411
C         47.70663        35.97422        -0.25748
C         46.48353        35.21914        -0.14224
C         47.72686        37.38025        -0.15905
C         46.49886        38.11909        -0.12658
C         47.71347        40.22797         0.20932
C         46.47632        39.51681         0.02433
C         47.69754        41.62344         0.46735
C         46.44449        42.34475         0.48175
C         47.65133        44.41815         1.03683
C         46.41543        43.75076         0.72129
C         47.47916        45.79853         1.24860
C         46.39062        46.42461         1.14948
C         50.14595        28.86443        -0.86660
C         48.78255        29.50536        -0.82792
C         50.30306        31.61066        -0.50419
C         49.03099        30.89221        -0.18308
C         50.30207        33.08340        -0.39228
C         49.05495        33.84012         0.00303
C         50.21490        36.00239        -0.60914
C         48.92980        35.20990        -0.67567
C         50.20315        37.40344        -0.36730
C         48.97181        38.11545        -0.13723
C         50.20041        40.24464         0.21282
C         48.96247        39.51710         0.09545
C         50.20318        41.64009         0.55977
C         48.93942        42.31864         0.69730
C         50.16736        44.24776         1.22846
C         48.88171        43.71175         1.02720
C         51.19218        29.49127        -1.08111
C         52.52769        31.72234        -1.39002
C         51.43666        30.90525        -0.96265
C         52.43381        32.98254        -1.37127
C         51.41971        33.87149        -1.02073
C         52.54799        36.14173        -0.97464
C         51.41334        35.28102        -0.90683
C         52.54468        37.35972        -0.69372
C         51.42828        38.16573        -0.36048
C         52.55034        40.37535         0.13826
C         51.42657        39.53215        -0.02238
C         52.61386        41.57533         0.49146
C         51.46131        42.36244         0.73986
C         51.29926        43.71397         1.11496
O         42.29980        35.79952         1.66256
O         34.95266        40.82448        -1.02407
O         31.80367        42.41089         1.52341
O         34.02097        38.82803         2.08982
O         34.83360        35.80915        -1.40827
O         48.65614        30.93585         1.22053
O         40.34648        28.14659         2.38779
O         40.99006        39.94821        -1.76521
O         44.61950        37.75679        -1.68657
O         50.09584        33.68001         0.98514
O         42.50104        27.22253        -1.08733
H         42.55468        26.27691        -1.34912
O         40.39136        33.25949         2.45007
H         40.90010        34.07961         2.63802
O         42.95805        44.73632        -1.66244
H         43.80958        45.20069        -1.80893
O         36.14776        33.43674         2.28150
H         36.95168        33.55067         2.83443
O         34.47763        35.52061         1.88928
H         34.76891        34.63163         2.22011
O         48.71413        34.84801        -2.08829
H         48.50129        35.66736        -2.58425
O         31.02306        33.43365         0.68947
H         30.88702        32.46288         0.67607
O         48.35528        29.74771        -2.17222
H         48.13178        28.89171        -2.59373
O         47.73177        33.31639         1.92081
H         48.51575        32.84096         2.28012
O         38.57248        39.22570        -1.95092
H         39.42310        39.22345        -2.45244
