         200
 CSIRO Nanostructure Databank - Neutral Graphene Oxide Data Set
C        -11.07635         0.75372         0.68611
C         -9.89020         1.51505         0.36804
C         -8.68215         0.78366         0.05856
C         -7.50917         1.52608        -0.29507
C         -6.30721         0.77066        -0.68898
C         -4.99712         1.52642        -0.72757
C         -3.73429         0.76304        -0.67572
C         -2.55544         1.44164        -0.48826
C         -1.26831         0.82471        -0.96441
C         -0.01861         1.39381        -0.27445
C          1.25259         0.80052        -0.89803
C          2.47887         1.48732        -0.35617
C          3.68435         0.75999        -0.20219
C          4.89897         1.47275         0.03652
C          6.11785         0.76299         0.25887
C          7.31418         1.49315         0.46076
C          8.54487         0.82529         1.02129
C          9.82081         1.50534         0.54583
C         11.04832         0.74012         0.43973
C         -9.88949         2.90300         0.35263
C         -8.71126         3.66216         0.02485
C         -7.49472         2.92162        -0.29033
C         -6.24370         3.65616        -0.36913
C         -5.01246         2.95492        -0.39272
C         -3.81045         3.62978        -0.12132
C         -2.56026         2.84205        -0.01638
C         -1.25068         3.58109         0.09067
C         -0.00153         2.90012        -0.24624
C          1.18617         3.60524        -0.23016
C          2.44959         2.88198        -0.23488
C          3.66203         3.61182        -0.05771
C          4.89159         2.89627         0.04830
C          6.11488         3.61547         0.15898
C          7.33323         2.89668         0.33890
C          8.58249         3.62736         0.36312
C          9.81370         2.86068         0.35598
C         -8.70467         5.04576         0.00501
C         -7.51533         5.79754        -0.54137
C         -6.22640         5.06749        -0.25477
C         -5.01745         5.75655        -0.01812
C         -3.80849         5.01636         0.11258
C         -2.54034         5.70855         0.42374
C         -1.26023         5.04300         0.14616
C         -0.06772         5.75222         0.05049
C          1.18374         5.04405        -0.08900
C          2.40215         5.74743        -0.05488
C          3.64873         5.03268        -0.02908
C          4.87957         5.74889         0.04256
C          6.11296         5.03877         0.12723
C          7.35225         5.75619         0.19498
C          8.57481         5.01187         0.27691
C         -7.45657         7.26028        -0.20571
C         -6.26815         7.92998        -0.06272
C         -5.00186         7.21350         0.03159
C         -3.81280         7.92352         0.12843
C         -2.53964         7.23366         0.39704
C         -1.27039         7.92538         0.13509
C         -0.06514         7.20514         0.07520
C          1.17656         7.90474        -0.02009
C          2.40612         7.18694        -0.02730
C          3.63966         7.88998        -0.01833
C          4.87747         7.17534         0.03001
C          6.11759         7.88071         0.07474
C          7.33044         7.16491         0.15450
C         -6.21958         9.38087        -0.00166
C         -5.04100        10.06093         0.00240
C         -3.77090         9.36604         0.03220
C         -2.55564        10.03655        -0.00548
C         -1.28479         9.35068        -0.00281
C         -0.06311        10.03337        -0.09339
C          1.17772         9.33873        -0.06710
C          2.42206        10.02103        -0.08719
C          3.63818         9.32462        -0.04258
C          4.90614        10.00751        -0.02030
C          6.08706         9.31965         0.04114
C        -11.05429        -0.60835         0.71838
C         -9.84312        -1.35472         0.46017
C         -8.64738        -0.62397         0.12261
C         -7.41779        -1.35830        -0.09759
C         -6.23741        -0.68274        -0.46839
C         -5.00086        -1.38052        -0.64017
C         -3.75167        -0.67261        -0.85390
C         -2.50461        -1.35790        -0.94233
C         -1.26634        -0.68121        -0.91072
C         -0.01805        -1.38482        -0.87261
C          1.22849        -0.70178        -0.74327
C          2.45943        -1.38801        -0.54073
C          3.68230        -0.66761        -0.28485
C          4.90340        -1.38185        -0.09295
C          6.11290        -0.67686         0.21142
C          7.32059        -1.40058         0.41958
C          8.54280        -0.69837         0.86225
C          9.86886        -1.42881         0.67845
C         11.08959        -0.61188         0.50398
C         -9.82171        -2.74377         0.53739
C         -8.61611        -3.49009         0.34344
C         -7.40016        -2.77724         0.05800
C         -6.17810        -3.48644        -0.09053
C         -4.99403        -2.78135        -0.42480
C         -3.76387        -3.55678        -0.65405
C         -2.49036        -2.82888        -0.98241
C         -1.20912        -3.55317        -0.86676
C         -0.02367        -2.82834        -0.90043
C          1.27958        -3.51834        -1.02179
C          2.50418        -2.80888        -0.62277
C          3.70735        -3.52623        -0.46116
C          4.91827        -2.81003        -0.18133
C          6.14898        -3.51516        -0.03176
C          7.35898        -2.79834         0.22938
C          8.62641        -3.51292         0.18887
C          9.83222        -2.80813         0.21220
C         -8.58971        -4.88944         0.43274
C         -7.37679        -5.62216         0.30978
C         -6.15371        -4.92160         0.06871
C         -4.92988        -5.64215         0.06182
C         -3.61817        -4.89071         0.05431
C         -2.41767        -5.67833        -0.43217
C         -1.25107        -4.99483        -0.80937
C         -0.01274        -5.75468        -1.06542
C          1.30125        -5.02580        -1.09612
C          2.52987        -5.71880        -0.66327
C          3.71387        -4.97605        -0.48092
C          4.95047        -5.66737        -0.23939
C          6.16300        -4.94137        -0.09762
C          7.41170        -5.65223         0.00863
C          8.61306        -4.92989         0.05610
C         -7.34163        -7.03234         0.48012
C         -6.12724        -7.72503         0.50466
C         -4.90709        -7.01096         0.31678
C         -3.58003        -7.65404         0.65129
C         -2.39909        -7.07649        -0.11057
C         -1.23139        -7.82480        -0.18347
C          0.00477        -7.22649        -0.71235
C          1.29258        -7.86540        -0.37261
C          2.50687        -7.13087        -0.41146
C          3.73689        -7.80906        -0.13760
C          4.95856        -7.08830        -0.12600
C          6.20354        -7.78767         0.05918
C          7.40060        -7.07668         0.06831
C         -6.07008        -9.15493         0.74592
C         -4.88616        -9.82805         0.78808
C         -3.61475        -9.16365         0.61918
C         -2.44621        -9.87028         0.50788
C         -1.18868        -9.21201         0.22701
C          0.02208        -9.88903         0.25877
C          1.27791        -9.22122         0.03855
C          2.50963        -9.89401         0.24298
C          3.72815        -9.21850         0.12635
C          4.98924        -9.89640         0.30106
C          6.17117        -9.21798         0.24322
O         -3.32624        -3.46317        -2.03852
O         -2.55276         6.48461         1.66720
O         -1.24423         1.21385        -2.39007
H         -2.00322         0.77070        -2.82812
O         -3.26503        -4.65918         1.42196
O         -7.67905         5.76030        -2.01740
H         -7.71292         4.81413        -2.27737
O          1.46268        -4.22488        -2.31354
O         -5.73407         1.21895        -1.96852
O         -1.91583         2.96280         1.31793
O         -0.10503        -6.77278        -2.11448
O          8.47637         1.09583         2.45514
H          8.94013         0.34574         2.89760
O         -3.33188        -7.27051         2.04341
H         -3.28633        -6.26109         2.04162
O         -0.05065         0.94769         1.10174
H         -0.73209         1.49542         1.56709
O          9.20279        -1.31619         2.01438
O          1.34638         1.07128        -2.32313
H          0.45463         0.94029        -2.72875
H         12.04521        -1.14147         0.37397
H         11.97874         1.30152         0.26066
H         10.75636         3.38932         0.14160
H          9.52850         5.56142         0.27747
H          8.27980         7.72011         0.19527
H          7.04194         9.86519         0.06682
H          4.90933        11.10727        -0.04448
H          2.42982        11.12103        -0.11806
H         -0.05948        11.13153        -0.16246
H         -2.55179        11.13523        -0.06968
H         -5.03514        11.16094        -0.00633
H         -7.17283         9.92990        -0.02126
H         -8.39586         7.83269        -0.26029
H         -9.63151         5.59879         0.22071
H        -10.81593         3.44775         0.58954
H        -12.00646         1.29906         0.90393
H        -11.96761        -1.17046         0.96353
H        -10.74818        -3.28707         0.77766
H         -9.52409        -5.43402         0.63775
H         -8.28277        -7.57539         0.65479
H         -7.01820        -9.69829         0.87385
H         -4.88227       -10.92070         0.92374
H         -2.45506       -10.96886         0.58548
H          0.04047       -10.95055         0.54738
H          2.50238       -10.96184         0.50779
H          4.98024       -10.98237         0.47531
H          7.12492        -9.75060         0.37113
H          8.35492        -7.61293         0.17838
H          9.56986        -5.47281         0.06925
H         10.77544        -3.32072        -0.02819
