         296
 CSIRO Nanostructure Databank - Neutral Graphene Oxide Data Set
C        -11.18783         0.63874        -0.09319
C         -9.95480         1.36713         0.14558
C         -8.72072         0.63297         0.33454
C         -7.50937         1.28719         0.45296
C         -6.26140         0.45038         0.71392
C         -4.93958         1.22279         0.51398
C         -3.87014         0.66317        -0.40954
C         -2.60574         1.47369        -0.64231
C         -1.37751         0.79136        -1.18601
C         -0.04477         1.53860        -1.21173
C          1.23506         0.71729        -1.44113
C          2.55100         1.44702        -1.03654
C          3.76282         0.64921        -0.67441
C          4.99060         1.36370        -0.19083
C          6.24633         0.57961        -0.17123
C          7.47670         1.32845        -0.71902
C          8.77091         0.52513        -0.65336
C         10.09610         1.27171        -0.85078
C         11.27298         0.47717        -0.31502
C         -9.93091         2.74463         0.15724
C         -8.70791         3.47792         0.37729
C         -7.44838         2.73721         0.51550
C         -6.26670         3.42177         0.75367
C         -4.96396         2.70719         0.69121
C         -3.74359         3.51113         0.32589
C         -2.41683         2.75455         0.17460
C         -1.26900         3.67511        -0.31031
C         -0.01951         3.00353        -0.86444
C          1.30378         3.71780        -0.69039
C          2.57972         2.93674        -0.73287
C          3.76629         3.46575         0.08458
C          5.08353         2.86700        -0.43651
C          6.35520         3.47259         0.18074
C          7.61562         2.71846        -0.09476
C          8.89255         3.44479        -0.33714
C         10.03804         2.75148        -0.52119
C         -8.72488         4.84538         0.41497
C         -7.53240         5.70955         0.73277
C         -6.27499         4.87802         1.09794
C         -4.95285         5.57884         1.34731
C         -3.69169         4.90175         0.85557
C         -2.33093         5.44683         1.31065
C         -1.17259         4.99782         0.40216
C          0.20142         5.52594         0.81894
C          1.26801         5.17539        -0.24138
C          2.62951         5.70320         0.16460
C          3.82672         4.97214         0.13834
C          5.04758         5.63071         0.42739
C          6.38093         4.96968         0.35371
C          7.64224         5.73335        -0.07794
C          8.86262         4.95021        -0.59151
C         -7.19374         6.60674        -0.47340
C         -6.34880         7.64518        -0.27631
C         -4.79602         7.05365         1.19796
C         -3.60669         7.64982         0.92946
C         -2.36518         7.01346         1.48672
C         -1.06793         7.81988         1.36402
C          0.22504         7.05489         1.07912
C          1.43860         7.83323         0.68541
C          2.66253         7.10033         0.28738
C          3.87473         7.79451         0.40362
C          5.00735         7.01636         0.67143
C          6.80259         8.08792         0.04353
C          7.56744         7.14840        -0.57060
C         -5.62311         8.48163        -1.23075
C         -4.44359         9.08869        -0.95885
C         -3.64906         9.06495         0.35010
C         -2.26511         9.65681         0.16239
C         -1.11910         9.15267         0.65682
C          0.12310        10.02720         0.78827
C          1.44307         9.31006         0.52479
C          2.61051         9.95275         0.27000
C          3.88049         9.21178        -0.13237
C          5.19023         9.98805        -0.10257
C          6.43974         9.48490        -0.25384
C        -11.24441        -0.71922        -0.14937
C        -10.07835        -1.54822         0.07744
C         -8.79199        -0.87212         0.54001
C         -7.59721        -1.54147        -0.16192
C         -6.29602        -0.83449        -0.10975
C         -4.97865        -1.60265        -0.14837
C         -3.91664        -0.77389        -0.86364
C         -2.66495        -1.48155        -1.35795
C         -1.37047        -0.70650        -1.44536
C         -0.09924        -1.46196        -1.11010
C          1.17907        -0.71778        -0.90077
C          2.48687        -1.55054        -0.96083
C          3.65272        -0.81604        -0.25526
C          4.98197        -1.55984        -0.36741
C          6.16545        -0.89659        -0.30480
C          7.42659        -1.59775         0.15352
C          8.72908        -0.89230        -0.18911
C          9.95882        -1.54299         0.42237
C         11.23128        -0.81772         0.04180
C        -10.10599        -2.90790         0.01000
C         -8.85397        -3.71029         0.31924
C         -7.68632        -3.03571        -0.45768
C         -6.33549        -3.76573        -0.19605
C         -5.12711        -3.00303        -0.81189
C         -3.77496        -3.75700        -0.62536
C         -2.63477        -3.04652        -1.39503
C         -1.28183        -3.70173        -1.02747
C         -0.05007        -2.95088        -1.55184
C          1.27266        -3.72181        -1.23692
C          2.27161        -2.98220        -0.34247
C          3.67816        -3.71152         0.05683
C          4.93970        -3.07398        -0.60496
C          6.20062        -3.80851        -0.01561
C          7.51699        -3.01797        -0.48519
C          8.80050        -3.73931        -0.07820
C          9.92730        -3.04780         0.20705
C         -8.95928        -5.20420        -0.06208
C         -7.61760        -5.94681        -0.08483
C         -6.43111        -5.23409        -0.72397
C         -5.08435        -5.87823        -0.39965
C         -3.87271        -5.25394        -1.07374
C         -2.55899        -5.96396        -0.78648
C         -1.27301        -5.20741        -0.93281
C         -0.05241        -6.01720        -1.39446
C          1.26608        -5.22076        -1.24762
C          2.52358        -5.97256        -0.83424
C          3.65602        -5.31235        -0.04122
C          4.98024        -5.99457        -0.49520
C          6.26629        -5.24797        -0.47736
C          7.52627        -5.94039        -0.07454
C          8.82838        -5.22117        -0.40725
C         -7.54355        -7.26294         0.19976
C         -6.34582        -8.08927        -0.22504
C         -5.04485        -7.32186        -0.06156
C         -3.75812        -8.02117        -0.14640
C         -2.55116        -7.30432        -0.42412
C         -1.28059        -8.14912        -0.55000
C          0.04039        -7.33401        -0.54205
C          1.23064        -8.13639        -1.12903
C          2.55613        -7.47750        -0.77813
C          3.73871        -8.21415        -0.13794
C          5.04179        -7.47934        -0.20471
C          6.22248        -7.99361         0.64868
C          7.46691        -7.12863         0.55341
C         -6.23318        -9.46324         0.38090
C         -5.03855       -10.07040         0.51455
C         -3.75807        -9.40884         0.23607
C         -2.56668       -10.04542         0.49543
C         -1.28046        -9.26309         0.53580
C         -0.07278       -10.16544         0.44299
C          1.13819        -9.81472         0.84353
C          2.27389        -9.67565         1.49302
C          3.65401        -9.29192         0.98219
C          4.48875        -8.81855         2.17935
C          5.68825        -8.23835         2.04359
O          7.21003         1.52915        -2.12527
H          7.48791         0.70982        -2.59446
O          8.77263        -0.60412        -1.60937
O          5.18723         3.18239        -1.83356
H          4.60812         2.56053        -2.33925
O         -1.05200        -4.34340         0.24128
O          5.62399        -5.59193        -1.72857
O          7.27866        -1.63321         1.59138
H          8.17599        -1.59839         2.01439
O         -0.02029        11.16945        -0.04370
H          0.68073        11.81410         0.17682
O          4.91537        -3.24498        -2.00557
H          5.85557        -3.12515        -2.33309
O          2.99408        -6.75303        -1.96868
O          7.06398         2.79820         1.25703
O         -2.30545         1.52684        -2.04211
O          7.36440         5.45455         1.31430
O          1.68849        -4.42998        -2.42156
O         -2.36854         7.30468         2.95242
O         -5.73248         5.07803         2.46713
O         -3.41519        -3.80132         0.74903
H         -4.18192        -4.13947         1.26764
O         -4.97118        -6.25976         0.98620
O         -4.12190        -5.45064        -2.47936
H         -3.42575        -4.97062        -2.99371
O          0.42114        -6.89509         0.77796
H         -0.03944        -7.46697         1.44912
O          7.47654        -2.95160        -1.85967
O          3.55121         1.04377        -2.06082
O          0.30972        -0.99366         0.21964
O         -0.14486         2.57601        -2.24727
O         -1.51541         4.93662        -0.99669
O         -6.61798        -5.29894        -2.14804
H         -7.34863        -4.66353        -2.37474
O         -4.46473         0.26615        -1.69287
O          1.56233        -2.92224         0.88903
H          2.03654        -2.28888         1.47784
O         -1.12202         8.08178         2.83341
O          5.54978         0.96649         1.08715
O          2.16023         3.69152        -1.89603
O         -5.94004         7.84143         1.06310
O          3.83875        -3.37864         1.43594
H          3.84324        -4.21959         1.95594
O         -7.10184        -0.78659        -1.31761
O         -1.41015        -8.80878        -1.81635
H         -1.19887        -8.15784        -2.52560
O          4.69852        -8.45986        -1.22067
O         -3.90046         4.62934        -0.57429
O          9.86793        -1.32717         1.88039
H         10.63187        -1.77808         2.29867
O         -0.17146        -2.86464        -2.98200
H          0.55909        -3.40201        -3.37713
O          1.19277         7.39905         2.11311
O         10.34592         1.29957        -2.28888
H         10.13085         0.39876        -2.62530
O         -1.97590         2.29716         1.47109
H         -2.10251         3.02718         2.13154
O         -8.71126        -1.09294         1.93278
O          9.01898        -5.30155        -1.82763
H          8.45092        -4.59555        -2.23074
O         -2.12365        -1.01065        -2.63501
O          3.45291        -5.80976         1.31496
H          2.49102        -5.77040         1.51793
O         -4.54365         1.80297         1.79155
O         -5.35973        -2.80419        -2.20669
H         -5.24054        -3.67333        -2.65969
O          6.63434        -9.28533         0.12402
H          6.64915        -9.20511        -0.85588
O         -6.49408        -8.29634        -1.66268
H         -6.57927        -7.40987        -2.08787
O          1.14170        -8.99688        -1.97571
O         -6.31001         0.01847         2.08648
H         -5.90109         0.72974         2.63185
O         -0.26857        -6.36379        -2.77050
H          0.60392        -6.50030        -3.20179
O          6.12417         7.65632         1.20878
O         -9.87342        -5.83835         0.82199
H         -9.74624        -5.41854         1.70226
O          0.88242         5.94684        -1.40648
H          1.25917         5.49629        -2.19544
O         -4.31249         9.95485         1.28029
H         -3.94558         9.78747         2.17312
O          0.52595         4.87887         2.06388
H          1.16102         5.47541         2.53160
O          1.29132         0.52374        -2.87017
H          1.06709         1.38632        -3.29143
O         -4.51828        -1.67698         1.20392
H         -5.18669        -2.16252         1.74026
O         -1.25916        -8.62954         1.85291
H         -2.10787        -8.15291         1.98116
O          6.20617        -3.91788         1.38989
H          6.25209        -3.01025         1.79004
O          4.22641       -10.51497         0.49704
H          5.16900       -10.31374         0.25816
O         -8.62729        -3.69000         1.74850
H         -8.71531        -2.72506         2.05564
O          3.53348         2.97585         1.42687
H          4.37014         3.04077         1.93730
O         -7.91883         6.49909         1.86784
H         -7.25102         6.35170         2.57642
O         -6.09162        -3.82775         1.21821
H         -6.95622        -4.00682         1.68657
O         -2.78782        -3.36751        -2.79430
H         -2.24650        -2.70174        -3.29487
O         -8.03764        -3.14729        -1.85458
H         -7.52851        -2.43083        -2.31389
O         -2.12674         4.83402         2.59870
H         -1.20726         5.03784         2.89876
O          2.79711        -1.73578        -2.33856
H          2.74067        -0.86486        -2.79887
O          3.32197        -0.75895         1.15492
H          4.09108        -0.34729         1.61810
O          3.71976         9.00844        -1.58647
H          2.86102         8.55710        -1.73768
O          8.96775         5.13814        -2.01369
H          8.46024         4.43374        -2.46818
H         12.17495        -1.33947         0.27330
H         12.25774         0.95019        -0.45941
H         10.96299         3.30919        -0.74115
H          9.77495         5.41750        -0.13625
H          8.11367         7.37218        -1.49770
H          7.25754        10.18894        -0.48340
H          5.06558        11.07040        -0.27622
H          2.61116        11.05039         0.15908
H          0.14581        10.35882         1.87371
H         -2.23253        10.66715        -0.27620
H         -3.98099         9.66635        -1.77635
H         -6.03611         8.56486        -2.24879
H         -7.56214         6.34181        -1.47399
H         -9.68234         5.37461         0.29522
H        -10.86051         3.31479         0.01024
H        -12.10236         1.22950        -0.25271
H        -12.20239        -1.22111        -0.35519
H        -11.02899        -3.43879        -0.27176
H         -9.37713        -5.27598        -1.10405
H         -8.43872        -7.78088         0.58036
H         -7.15807       -10.00447         0.62997
H         -4.98455       -11.09920         0.90162
H         -2.56977       -11.07986         0.87199
H         -0.20554       -11.13833        -0.06048
H          2.27940       -10.05789         2.53373
H          4.10320        -9.03883         3.18783
H          6.28778        -7.95724         2.92232
H          8.39901        -7.61190         0.88945
H          9.68934        -5.73291         0.09546
H         10.87085        -3.59509         0.37755
