         651
 CSIRO Nanostructure Databank - Neutral Graphene Oxide Data Set
C          5.94663        31.58634        -0.29735
C          5.88490        32.86834        -0.70843
C          8.40517        27.37897         0.78904
C          7.96898        28.61045         0.22244
C          7.23400        29.63319         0.76500
C          8.41499        31.62032        -0.55025
C          7.24884        31.08021         0.30314
C          8.37055        32.98685        -0.78899
C          7.09253        33.70577        -0.70634
C          8.34061        35.84879        -0.56588
C          7.05660        35.06890        -0.71573
C          8.25356        37.32512        -0.86960
C         10.97669        23.32428         1.37890
C         10.94838        24.65529         0.91586
C          9.75127        25.40532         0.93703
C         10.85186        27.36651        -0.07503
C          9.64167        26.73454         0.47093
C         10.87502        28.76250        -0.55130
C          9.69769        29.49563        -0.81236
C         10.84588        31.59690        -1.13510
C          9.64439        30.90640        -0.82897
C         10.81683        33.03542        -1.32831
C          9.54864        33.73886        -1.19032
C         10.63364        35.91003        -1.69601
C          9.48288        35.12785        -1.24970
C         10.61870        37.41101        -1.59757
C          9.37136        38.08371        -1.16789
C         10.61264        40.23322        -0.95944
C          9.40291        39.51347        -1.07544
C         10.54923        41.71619        -0.61850
C         13.39273        19.11251         2.15405
C         13.40001        20.53622         2.01492
C         12.19899        21.25064         1.88149
C         13.42329        23.25853         1.10727
C         12.18768        22.61095         1.48188
C         13.39029        24.57697         0.57596
C         12.16407        25.29264         0.47744
C         13.34587        27.38769        -0.13042
C         12.06675        26.65926         0.02888
C         13.36167        28.82784        -0.53405
C         12.07315        29.49704        -0.78018
C         13.29831        31.54246        -1.60268
C         12.05116        30.84815        -1.19610
C         13.29294        33.05273        -1.61638
C         12.00178        33.74658        -1.43488
C         13.18876        35.96408        -1.29030
C         11.98075        35.18897        -1.70069
C         13.21249        37.43888        -1.32968
C         11.92890        38.18109        -1.45959
C         13.08398        40.26383        -0.59783
C         11.84456        39.56981        -0.98382
C         13.10301        41.73555        -0.62403
C         11.88488        42.44964        -0.63450
C         13.13436        44.54750        -0.38045
C         11.90943        43.84569        -0.55313
C         13.19690        45.98240        -0.35534
C         15.79091        14.80315         1.72484
C         15.78170        16.20142         1.86781
C         14.57084        16.93937         1.99344
C         15.86065        19.04130         2.28579
C         14.56527        18.34270         2.11552
C         15.89939        20.55549         2.18161
C         14.64160        21.25207         1.83220
C         15.97588        23.06530         0.78203
C         14.64905        22.54253         1.30772
C         15.99238        24.56748         0.46254
C         14.65725        25.18300         0.08314
C         15.85374        27.45312        -0.13161
C         14.62558        26.63021        -0.30180
C         15.87736        28.80725        -0.53359
C         14.63348        29.40397        -1.07811
C         15.84431        31.65336        -1.30985
C         14.62294        30.84965        -1.48036
C         15.77404        33.06067        -1.28849
C         14.56486        33.76862        -1.41499
C         15.72847        36.03586        -1.17649
C         14.50872        35.21961        -1.13931
C         15.67736        37.41256        -1.06914
C         14.39547        38.09474        -1.07318
C         15.64690        40.30345        -0.85560
C         14.39972        39.52818        -0.71032
C         15.60749        41.67688        -0.66598
C         14.35398        42.40845        -0.55298
C         15.60983        44.57537        -0.28810
C         14.34863        43.80596        -0.35855
C         15.49451        45.82983         0.55971
C         14.34268        46.71410         0.02891
C         15.55285        48.88922         0.69502
C         14.36802        48.08358         0.19779
C         15.77899        50.13822        -0.18240
C         18.16759        10.53594         0.84475
C         18.18175        11.91558         1.16400
C         16.98251        12.63607         1.39984
C         18.25258        14.71221         1.53608
C         16.99460        14.03552         1.57243
C         18.24875        16.17623         1.46102
C         17.03820        16.93322         1.80329
C         18.36638        19.02124         2.04783
C         17.10628        18.30054         2.01549
C         18.38907        20.49125         2.14892
C         17.20893        21.23786         2.02754
C         18.08486        23.57095         2.05698
C         17.12518        22.65488         1.69171
C         18.33360        24.90928         1.57443
C         17.14664        25.48789         0.82969
C         17.93397        27.87583         0.93516
C         16.93554        26.94946         0.61007
C         18.17769        29.05990         0.22616
C         17.07007        29.56018        -0.50529
C         18.37591        31.70136        -0.74655
C         17.12009        30.92815        -1.07235
C         18.23710        33.18569        -0.60027
C         17.03995        33.84737        -1.19746
C         18.21852        36.14435        -0.86969
C         17.02519        35.34298        -1.21546
C         18.18746        37.50466        -1.06145
C         16.90832        38.20223        -1.09620
C         18.14281        40.37302        -1.35280
C         16.88410        39.58571        -1.05449
C         18.19545        41.68037        -0.59210
C         16.88866        42.37647        -0.39672
C         18.17183        44.53923         0.01213
C         16.90875        43.85751        -0.35758
C         18.10087        45.86858         0.36758
C         16.83065        46.57084         0.73227
C         18.14455        48.80378         0.73575
C         16.84530        48.07720         0.82466
C         18.17629        50.24574         0.64482
C         16.95306        50.97857         0.28028
C         18.16391        53.12254         0.67206
C         16.94173        52.33452         0.23543
C         18.25769        54.56237         0.25859
C         20.49672         6.40095        -0.44970
C         20.51970         7.75931        -0.15730
C         19.33005         8.47073         0.16487
C         20.62625        10.50920         0.66105
C         19.35658         9.82848         0.55478
C         20.65971        11.88291         1.00675
C         19.44578        12.60102         1.22723
C         20.75220        14.68338         1.59465
C         19.47513        14.00935         1.44611
C         20.81550        16.10422         1.75986
C         19.58297        16.89955         1.55400
C         20.88378        18.97989         2.14177
C         19.55553        18.31190         1.93122
C         20.82865        20.37484         1.61928
C         19.69810        21.10862         1.94657
C         20.96611        23.24035         1.66703
C         19.92049        22.50999         2.14828
C         20.99242        24.72701         1.92218
C         19.63485        25.44304         1.62459
C         20.82966        27.56400         0.89358
C         19.79442        26.87212         1.48483
C         20.76352        28.97453         0.48288
C         19.49283        29.72041         0.31387
C         20.75888        31.84224         0.02003
C         19.51419        31.06588        -0.02430
C         20.73900        33.24052        -0.46986
C         19.47020        33.99358        -0.34148
C         20.63044        36.02416        -1.27746
C         19.51628        35.52145        -0.39535
C         20.66955        37.48324        -1.56926
C         19.44698        38.25566        -1.18101
C         20.70500        40.43392        -1.49268
C         19.44573        39.61449        -1.23151
C         20.68376        41.78948        -0.79851
C         19.47251        42.44779        -0.57579
C         20.65488        44.47880         0.07572
C         19.43636        43.82641        -0.16566
C         20.65393        45.94328         0.21274
C         19.32807        46.66954         0.32942
C         20.60835        48.72397         1.02085
C         19.31964        48.07906         0.76467
C         20.64244        50.24899         0.96818
C         19.38457        50.91565         0.64556
C         20.72767        53.04368         0.16745
C         19.41008        52.34738         0.28143
C         20.74570        54.51577         0.28380
C         19.49448        55.23819         0.25465
C         20.77825        57.35173         0.28933
C         19.55317        56.66237         0.23302
C         20.81427        58.78446         0.41427
C         22.77407         3.79341        -1.94542
C         21.66212         4.33797        -1.36926
C         22.82547         6.53652        -1.30158
C         21.78331         5.64059        -0.61586
C         22.96838         7.85340        -0.57786
C         21.79681         8.47236        -0.11282
C         23.09558        10.48086         0.48363
C         21.84270         9.81896         0.36434
C         23.14476        11.84496         0.91349
C         21.92117        12.55753         1.12726
C         23.24686        14.54410         1.77840
C         21.94497        13.92395         1.50713
C         23.30601        16.07145         1.95299
C         22.03648        16.78937         1.84969
C         23.27312        18.85359         1.35366
C         22.09071        18.20610         1.69361
C         23.21578        20.19650         0.65492
C         21.96887        21.00922         0.96688
C         23.34428        23.20068         0.82008
C         22.03253        22.53780         0.94866
C         23.31734        24.65731         0.83455
C         22.14098        25.37024         1.15005
C         23.35208        27.53705         0.51227
C         22.12590        26.83629         0.96686
C         23.17668        28.80393        -0.26558
C         21.91826        29.56198        -0.05858
C         23.13491        31.66777        -1.01050
C         22.02700        31.02001        -0.21439
C         23.15556        33.17652        -1.04676
C         21.79821        33.82444        -1.10007
C         23.47341        36.12610        -2.08534
C         21.55995        35.13189        -1.70941
C         23.32445        37.54419        -1.72091
C         22.00188        38.24232        -1.72092
C         23.16601        40.34215        -0.96811
C         22.01009        39.67774        -1.30549
C         23.16641        41.72440        -0.49584
C         21.92239        42.42265        -0.44023
C         23.11487        44.41849         0.40385
C         21.89951        43.77339         0.03207
C         23.05321        45.79518         0.93703
C         21.87020        46.62138         0.68654
C         23.13095        48.71139         1.02328
C         21.88197        47.98248         0.90210
C         23.14357        50.17104         0.85702
C         21.94162        50.91360         0.72937
C         23.20114        52.98981         0.48246
C         21.98096        52.29493         0.44189
C         23.27061        54.44587         0.12380
C         21.96838        55.19265         0.30806
C         23.29753        57.29130         0.29729
C         21.99615        56.60270         0.30809
C         23.29982        58.79985         0.45236
C         21.99799        59.49111         0.59471
C         23.22575        61.51899         1.23106
C         22.02618        60.87446         0.92202
C         24.03589         4.46744        -1.93617
C         25.34430         6.49986        -1.44484
C         24.13149         5.80439        -1.52797
C         25.42271         7.84001        -0.95552
C         24.21786         8.50467        -0.50474
C         25.56210        10.43319         0.21266
C         24.30548         9.80884         0.07919
C         25.67204        11.68783         1.03299
C         24.40466        12.50355         1.03268
C         25.71558        14.57892         1.35673
C         24.47877        13.86028         1.36572
C         25.73848        15.99098         1.49507
C         24.56273        16.76209         1.63479
C         25.72434        18.87929         1.01768
C         24.53359        18.15936         1.33582
C         25.70160        20.26081         0.67402
C         24.50395        20.99164         0.70421
C         25.78538        23.09989         0.45243
C         24.50689        22.43170         0.62951
C         25.83337        24.60305         0.59139
C         24.52530        25.33662         0.45701
C         25.71734        27.42108        -0.15388
C         24.57025        26.74144         0.24057
C         25.73905        28.93372        -0.24966
C         24.41840        29.46475        -0.78492
C         25.71799        31.62576        -1.35484
C         24.41421        30.90344        -1.23973
C         25.71045        33.08332        -1.77275
C         24.44351        33.86611        -1.38780
C         25.69442        36.02118        -1.08414
C         24.50279        35.33411        -1.68273
C         25.74817        37.46301        -1.58578
C         24.45262        38.20221        -1.33243
C         25.63725        40.15187        -0.24867
C         24.50991        39.69442        -1.16973
C         25.64135        41.67669        -0.09850
C         24.37536        42.36889        -0.08593
C         25.59952        44.45352         0.61708
C         24.35532        43.75127         0.32222
C         25.62605        45.82479         0.99968
C         24.34998        46.53857         1.24927
C         25.62327        48.66323         0.98372
C         24.31544        48.00141         1.12559
C         25.65095        50.14952         0.82816
C         24.36983        50.87327         0.80717
C         25.63923        53.00446         0.99574
C         24.39916        52.28440         0.73297
C         25.61719        54.38992         1.11063
C         24.46162        55.15251         0.72643
C         25.69981        57.26410         1.10918
C         24.49304        56.53444         0.73126
C         25.68112        58.70405         1.16016
C         24.52159        59.45118         0.98116
C         24.44391        60.83318         1.29262
C         26.64982         8.50858        -0.85847
C         27.99225        10.47242        -0.17806
C         26.74698         9.80694        -0.27966
C         28.11507        11.80152         0.33308
C         26.91174        12.50284         0.76794
C         28.20194        14.59282         0.98192
C         26.93915        13.86272         1.03647
C         28.25214        15.94897         1.12717
C         27.02593        16.70512         1.43643
C         28.28111        18.86182         0.78012
C         27.02130        18.20639         1.21846
C         28.25302        20.23032         0.44762
C         26.94387        20.90631         0.09906
C         28.22478        23.10280         0.00648
C         26.96400        22.41230         0.25172
C         28.23373        24.48618        -0.21633
C         26.93348        25.18688        -0.26107
C         28.21911        27.37373        -0.49365
C         26.91516        26.65532        -0.52793
C         28.21646        28.85331        -0.69990
C         26.89433        29.45113        -1.14000
C         28.21170        31.64813        -1.28218
C         26.91553        30.96922        -1.19783
C         28.19375        33.11607        -1.28934
C         26.99054        33.78680        -1.33819
C         28.15286        35.95397        -0.69635
C         27.01598        35.29539        -1.46643
C         28.15233        37.45709        -0.97424
C         26.99130        38.15764        -1.10210
C         28.11672        40.31021        -0.54418
C         26.86301        39.66969        -1.06117
C         28.11985        41.75699        -0.21339
C         26.83496        42.37891         0.08017
C         28.06673        44.45325         0.73559
C         26.84275        43.77913         0.46076
C         28.06575        45.81229         1.10333
C         26.84124        46.50839         1.19261
C         28.09208        48.73547         1.43008
C         26.80260        47.96796         1.63016
C         28.10510        50.11202         1.35170
C         26.88705        50.88130         1.16032
C         28.10913        53.00197         1.45395
C         26.86478        52.26159         1.23456
C         28.07600        54.37585         1.59959
C         26.77057        55.09536         1.78376
C         26.82326        56.56648         1.50113
C         29.34409        12.43640         0.39281
C         30.64424        14.58810         0.44393
C         29.49176        13.79822         1.00224
C         30.71521        15.94307         0.60838
C         29.56856        16.69295         1.26053
C         30.68884        18.80957         0.42197
C         29.49770        18.14625         0.80124
C         30.67740        20.19387         0.15922
C         29.46285        20.91606         0.20556
C         30.66816        23.02599        -0.22238
C         29.46424        22.35911        -0.02505
C         30.67217        24.44945        -0.58960
C         29.42707        25.21419        -0.52436
C         30.69626        27.37183        -0.63560
C         29.46943        26.61189        -0.62313
C         30.66811        28.81396        -0.82622
C         29.48972        29.53194        -1.01832
C         30.68328        31.68242        -1.72862
C         29.42174        30.94810        -1.29980
C         30.75755        33.06507        -1.00151
C         29.46059        33.86441        -1.13413
C         30.68714        35.98064        -0.59791
C         29.45990        35.22260        -0.94246
C         30.70022        37.45972        -0.65018
C         29.46516        38.16817        -1.18275
C         30.64509        40.35067        -0.73533
C         29.39180        39.56615        -0.61530
C         30.60056        41.83649        -0.47603
C         29.30416        42.41889        -0.05338
C         30.56626        44.55517         0.21837
C         29.38023        43.69007         0.74281
C         30.61710        45.89574         0.92228
C         29.34900        46.52230         1.40037
C         30.62763        48.73168         1.47015
C         29.34562        47.99432         1.82875
C         30.58114        50.15648         1.52510
C         29.36279        50.86018         1.46959
C         29.33243        52.26320         1.49631
C         31.90778        16.67160         0.29067
C         33.16665        18.77370         0.13747
C         31.94505        18.06276         0.28586
C         33.19885        20.16811        -0.02061
C         31.91609        20.85888        -0.37950
C         33.12493        23.03823        -0.03157
C         31.94285        22.34389        -0.18579
C         33.06518        24.52289         0.29702
C         31.96416        25.23199        -0.46211
C         33.19613        27.37202        -0.46551
C         31.91464        26.70016        -0.41788
C         33.21663        28.75590        -0.85670
C         31.95646        29.58588        -0.64903
C         33.13717        31.31031        -1.91911
C         31.95277        30.86219        -1.46053
C         33.16468        33.53800        -1.89396
C         32.00156        33.92757        -1.30261
C         33.18620        36.18927        -1.07595
C         32.01279        35.28320        -0.71436
C         33.18543        37.45549        -0.18183
C         31.87178        38.18099        -0.45997
C         33.08830        40.35055        -0.61331
C         31.89436        39.60773        -0.59014
C         33.06470        41.75666        -0.46928
C         31.88968        42.50293        -0.15697
C         33.05868        44.47095         0.93186
C         31.90164        43.81796         0.32538
C         33.02788        45.82833         1.18272
C         31.88988        46.68355         0.66709
C         31.81431        48.08927         1.19885
C         34.38808        20.90500         0.00648
C         35.61102        23.02908         0.02377
C         34.40336        22.33385        -0.00859
C         35.68804        24.48247         0.14377
C         34.39992        25.26956         0.19470
C         35.67057        27.20766        -0.90588
C         34.39157        26.65664        -0.30959
C         35.68998        28.71226        -0.93842
C         34.45024        29.36983        -1.13024
C         35.71534        31.61703        -1.37797
C         34.46925        30.75033        -1.63379
C         35.68868        33.14625        -1.27002
C         34.50512        34.07864        -1.54289
C         35.61914        36.07192        -0.51577
C         34.49859        35.46151        -0.98133
C         35.77679        37.58692        -0.51899
C         34.42095        38.27602        -0.47470
C         36.06322        40.52339         0.49824
C         34.33991        39.61318        -0.65617
C         35.77146        41.70117         1.17713
C         34.78216        42.65183         0.71974
C         34.22261        43.69597         1.41096
C         36.94674        25.21967        -0.11588
C         38.11988        27.36045        -0.31138
C         36.93750        26.56215        -0.39641
C         38.10466        28.74987        -0.43430
C         36.87869        29.46606        -0.77504
C         38.03375        31.60820        -0.35449
C         36.87430        30.89131        -0.78300
C         38.00452        33.00516        -0.15234
C         36.72850        33.73453        -0.33393
C         37.93688        35.86932         0.48413
C         36.71756        35.21189        -0.03189
C         37.87597        37.22926         0.83392
C         36.81170        38.10430         0.48937
C         36.84412        39.42185         0.97618
C         39.28299        29.49945        -0.15029
C         40.41664        31.62385         0.35363
C         39.25452        30.88441        -0.06361
C         40.35691        32.96955         0.56874
C         39.13463        33.70389         0.36151
C         39.08417        35.08020         0.68300
O         13.22481        32.25312        -2.87465
O         18.59523        33.56874         0.76581
O         23.50223        58.17566        -0.85903
O         14.60364        25.60747        -1.33095
O         35.53157        40.35343        -0.80552
O         14.69006        29.73951        -2.48420
O         17.04328        24.83949        -0.51014
O         21.56527        21.78837        -0.22995
O         16.87470        47.24140         2.03302
O         31.56017        24.69731        -1.74676
O         18.73479        27.60223         2.02987
O         11.28840        35.49673        -2.93756
O         23.42727        31.09858        -2.31134
O         23.36825        15.16763         3.09986
O         13.74833        39.71700         0.60580
O         13.63768        35.49441         0.03731
O         11.24107        38.02783        -2.75977
O         15.85943        19.87529         3.49324
O         21.15886        37.93216        -2.88107
O         23.45996        54.50538        -1.39138
O         26.53187        40.18193        -2.39815
O         19.02482        23.15116         3.02279
O         31.85981        20.61272        -1.91099
O         36.17454        34.20677         0.93726
O         17.31543        34.54360        -2.45920
O         23.55397        45.94137         2.31443
O         20.04188        46.57967        -0.97114
O         26.64431        25.68376        -1.60320
O         13.51722        28.45052         0.88488
O         34.27216        42.43912        -0.58855
O         35.57581        33.86271        -2.52570
O         27.19370        17.63630         2.58003
O          8.50483        28.83323        -1.06496
O         17.58298        41.72074         0.73421
O         33.17756        32.43860        -2.76040
O         30.25176        45.78768         2.33419
O         19.97576        52.59837        -1.04117
O         23.01413        27.59561         1.92601
O         35.14366        25.04981         1.45392
O         24.03857        33.69557         0.02259
O         23.64761        28.59295        -1.64838
O         31.40939        35.42148         0.61089
O         35.42946        31.04901        -2.69203
O         22.41078        35.50832        -2.74939
O         30.58973        41.30612        -1.85258
O         28.22286        28.30692         0.66796
O         16.33298        44.51841        -1.56101
O         18.17026        31.16905        -2.08851
O         20.60440        49.53484         2.24943
O         18.94151        16.65772         0.24919
O         25.03133        40.20823        -2.48316
O         25.85642        49.23225        -0.33816
O         28.67048        39.59574         0.65216
O         14.96529        45.40434         1.77273
O         21.72218        31.64691         1.08472
O         27.33482        35.50582        -2.86186
H         26.61801        35.09612        -3.39816
O         25.50974        36.08505         0.33665
H         25.22062        35.20375         0.66097
O         15.19710        49.35744         2.01088
H         15.33557        48.59976         2.62439
O         26.28182        24.87634         1.96799
H         25.54304        24.66192         2.57683
O         35.61110        26.77886        -2.32372
H         34.91561        27.31042        -2.76798
O         25.81213        11.20501         2.42946
H         25.94335        11.99429         2.99816
O         21.08885        19.10530         3.60147
H         20.27171        19.49094         3.98496
O         19.75346        35.98688         0.95580
H         19.21760        35.42371         1.55744
O         29.30182        47.97832         3.29783
H         29.93388        47.27705         3.58240
O         33.30434        37.10786         1.21041
H         32.56412        36.49351         1.43767
O         25.55456        39.53603         1.02951
H         26.42385        39.61372         1.47760
O         18.01340        40.74430        -2.76162
H         18.92493        40.94541        -3.10207
O         32.94715        36.58206        -2.44819
H         33.77121        36.97926        -2.80264
O         30.88471        32.73400         0.39932
H         30.94245        33.58100         0.90243
O         25.71595        33.12613        -3.23612
H         26.42087        32.52555        -3.55885
O         30.31640        44.82814        -1.18886
H         30.40735        43.99063        -1.69445
O         20.69136        40.72757        -2.94171
H         20.84617        39.86104        -3.39316
O         29.66481        43.25025         2.09193
H         29.81093        44.06194         2.63745
O         26.48074        55.00334         3.24541
H         26.45855        54.04846         3.47294
O         27.94511        35.79591         0.72772
H         28.62596        36.31920         1.19934
O          8.67162        35.81304         0.88239
H          8.74505        34.86925         1.14213
O         25.85878        37.45502        -3.03777
H         25.92078        38.39227        -3.33165
O         31.99485        29.96904         0.76521
H         31.70442        29.19952         1.29884
O         25.86612        29.50423         1.06747
H         26.69785        29.15095         1.46454
O         16.15484        22.37890        -0.48474
H         16.71309        22.95769        -1.05274
O         32.63958        24.61642         1.68646
H         33.46314        24.57839         2.22977
O         26.54090        47.98686         3.06184
H         27.41019        47.85998         3.51684
O         18.11704        53.14773         2.14182
H         18.79213        53.78283         2.46114
O         26.82688        20.66708        -1.35555
H         25.93665        20.97308        -1.63442
O          7.39159        31.79588         1.57889
H          7.17624        32.74026         1.42283
O         22.28768         6.84641        -2.62059
H         22.96807         7.35260        -3.11131
O          9.60969        42.37385        -1.47620
H          9.88442        42.22941        -2.40473
O         21.25552        24.96907         3.33173
H         20.53310        24.53091         3.83430
O         16.05136        49.66261        -1.50737
H         16.32455        50.41984        -2.06455
O         32.07197        46.86450        -0.76812
H         31.57546        46.15365        -1.24292
O         22.24996         5.30971         0.72771
H         23.06340         4.77029         0.63095
O         30.70525        21.28079        -2.43425
H         29.99770        20.59043        -2.41047
O         30.54012        31.90626        -3.14538
H         31.41156        32.22151        -3.48398
O         24.67793        53.79526        -1.70223
H         24.35103        52.99021        -2.17298
O         29.84922        16.70417         2.69789
H         29.06524        17.13428         3.11966
O         29.80829        13.61159         2.43068
H         29.92684        14.51576         2.80819
O         26.62537        28.97074        -2.47666
H         27.28339        29.35203        -3.09380
O         29.62996        38.28497        -2.62210
H         29.36492        37.43618        -3.03671
O         23.10776        19.80457        -0.76009
H         22.58820        20.51856        -1.20208
O         36.34601        37.87375        -1.83506
H         36.43579        38.85411        -1.88855
H          5.05072        30.94917        -0.28626
H          4.93909        33.31311        -1.05276
H          7.78009        26.89906         1.55824
H          6.80205        29.48803         1.76654
H          6.09366        35.60143        -0.68779
H          7.32305        37.83986        -0.58262
H         10.03650        22.83808         1.67839
H          8.85356        24.92809         1.35862
H          8.45802        40.05338        -0.91467
H         10.13538        41.80941         0.42384
H         12.41860        18.59997         2.14833
H         11.24046        20.73664         2.04649
H         10.96023        44.40092        -0.56133
H         12.34159        46.53496        -0.78110
H         14.83095        14.26539         1.73409
H         13.61237        16.40019         1.95313
H         13.40306        48.61800         0.23156
H         14.84214        50.76406        -0.18609
H         17.20322        10.01032         0.78079
H         16.02279        12.09888         1.38799
H         16.02594        52.87760        -0.04648
H         17.33336        55.16050         0.23382
H         19.54030         5.85520        -0.44069
H         18.36524         7.94369         0.11985
H         18.61364        57.23375         0.21209
H         19.85628        59.32346         0.46869
H         22.72172         2.79244        -2.39908
H         20.71808         3.77449        -1.33015
H         23.20489        62.58809         1.48558
H         21.08033        61.43411         0.95662
H         24.93947         3.92435        -2.24965
H         26.27947         5.98306        -1.71110
H         26.59567        59.21554         1.49805
H         25.35047        61.35854         1.62594
H         27.56613         8.01009        -1.20740
H         28.89923         9.95940        -0.53156
H         29.01303        54.93049         1.76104
H         27.73403        57.11519         1.78613
H         30.25081        11.90126         0.07108
H         31.50678        14.04317         0.02858
H         31.52602        50.71960         1.47777
H         30.27763        52.81568         1.60751
H         32.82036        16.10489         0.05044
H         34.11362        18.21697         0.20880
H         33.88586        46.30861         1.67637
H         32.71064        48.70973         1.03555
H         35.34189        20.37441         0.15007
H         36.55207        22.46922        -0.08625
H         36.18518        41.84040         2.18626
H         34.66876        44.01161         2.36598
H         37.89347        24.71980         0.14496
H         39.05806        26.86825        -0.01093
H         38.73846        37.65901         1.36856
H         37.54660        39.63059         1.80003
H         40.21392        28.95912         0.07790
H         41.34962        31.07119         0.53644
H         41.24255        33.51580         0.92424
H         39.98922        35.55443         1.09179
