         284
 CSIRO Nanostructure Databank - Neutral Graphene Oxide Data Set
C        -11.18611         0.64896        -0.48366
C         -9.93160         1.48756        -0.61743
C         -8.66761         0.70008        -0.26258
C         -7.49332         1.42115         0.30817
C         -6.35577         0.74505         0.62189
C         -5.08907         1.44237         0.99222
C         -3.81631         0.69100         0.67416
C         -2.51739         1.46050         0.65564
C         -1.25550         0.81391         0.17445
C          0.03795         1.49699         0.48505
C          1.20214         0.66600         1.00760
C          2.56069         1.45481         1.00453
C          3.88382         0.71260         0.73688
C          5.01281         1.67295         0.17188
C          6.25222         1.00544        -0.38240
C          7.58496         1.76167        -0.60131
C          8.89338         0.92370        -0.47563
C         10.23942         1.67323        -0.30528
C         11.27597         0.82635         0.40649
C        -10.09189         2.81124         0.17880
C         -8.82278         3.64222         0.12696
C         -7.59123         2.89682         0.51759
C         -6.35356         3.67850         0.81281
C         -5.05015         2.96133         1.05407
C         -3.75716         3.72663         0.92364
C         -2.47853         2.94596         0.82023
C         -1.21570         3.59306         0.32973
C          0.04151         2.97267         0.91499
C          1.33688         3.57718         0.29718
C          2.54113         2.96382         0.99844
C          3.81822         3.78147         1.09973
C          5.09454         3.07794         0.73110
C          6.40808         3.81586         0.62515
C          7.64975         3.09021         0.16418
C          8.93804         3.79690        -0.12237
C         10.14220         3.05087         0.41024
C         -8.81690         4.98781         0.00324
C         -7.53162         5.75395        -0.27356
C         -6.30630         5.14820         0.46412
C         -5.00406         5.88126         0.30189
C         -3.64607         5.23924         0.64072
C         -2.53739         5.67706        -0.32114
C         -1.21239         4.96591        -0.22300
C          0.04698         5.75160        -0.13484
C          1.34148         5.10192         0.21024
C          2.46589         5.96396         0.70443
C          3.65465         5.29096         1.46208
C          4.97994         6.02017         1.09321
C          6.34596         5.31996         0.91990
C          7.66502         5.46677        -1.30113
C          8.96872         4.93365        -0.84432
C         -7.47939         7.23144         0.10585
C         -6.31055         7.99957        -0.24557
C         -4.97692         7.21593        -0.42745
C         -3.71121         8.02290        -0.53211
C         -2.51217         7.11102        -0.71723
C         -1.20800         7.83372        -0.77613
C          0.01634         7.07313        -0.38347
C          1.00093         8.09478         0.13156
C          2.29298         7.51177         0.81834
C          3.57350         8.08481         0.14980
C          4.83911         7.26749         0.27949
C          5.74646         7.16834        -0.94694
C          7.00948         6.44966        -0.48804
C         -6.04784         9.41741         0.15739
C         -4.85272         9.88328         0.57957
C         -3.55960         9.06351         0.66818
C         -2.28133         9.83996         0.48009
C         -1.03449         9.14196         0.05367
C         -0.25708         9.64738        -1.19117
C          1.14977         9.18255        -0.91866
C          2.30041         9.65455        -1.42355
C          3.59483         9.14010        -0.91064
C          4.84080         9.33421        -1.71113
C          5.88610         8.49185        -1.66388
C        -11.21504        -0.68359        -0.28094
C        -10.01848        -1.49717        -0.10482
C         -8.70197        -0.79215        -0.12107
C         -7.65125        -1.47320         0.74403
C         -6.25251        -0.78456         0.78423
C         -5.19386        -1.36368        -0.16109
C         -3.90452        -0.60532        -0.10713
C         -2.61975        -1.33545        -0.39194
C         -1.32397        -0.64645        -0.12830
C         -0.07376        -1.43296         0.05317
C          1.20620        -0.75406         0.43416
C          2.38495        -1.30659        -0.35561
C          3.71071        -0.52648        -0.19744
C          4.98750        -1.24775        -0.51436
C          6.27175        -0.51065        -0.18883
C          7.55701        -1.26732        -0.12656
C          8.86847        -0.57211        -0.34284
C         10.11013        -1.39062         0.05133
C         11.22001        -0.50020         0.56470
C        -10.07515        -2.83411         0.14031
C         -8.85283        -3.68199         0.21512
C         -7.53654        -2.97998         0.38148
C         -6.31738        -3.56590        -0.25665
C         -5.17945        -2.83400        -0.45607
C         -3.88866        -3.48779        -0.87434
C         -2.61475        -2.86075        -0.29102
C         -1.32265        -3.47712        -0.85891
C         -0.02040        -2.75434        -0.66206
C          1.19804        -3.54725        -0.25691
C          2.53207        -2.80207        -0.00642
C          3.71893        -3.52175        -0.65329
C          5.04030        -2.74024        -0.90025
C          6.28169        -3.50513        -0.36522
C          7.56772        -2.77151        -0.16413
C          8.67585        -3.42021         0.59865
C          9.75821        -2.48976         1.08839
C         -8.91343        -5.05826        -0.43805
C         -7.59526        -5.78712        -0.30332
C         -6.40013        -4.98791        -0.70560
C         -5.15685        -5.71623        -1.16510
C         -3.84304        -4.97448        -1.14794
C         -2.57460        -5.75277        -0.73880
C         -1.30272        -4.98250        -1.06821
C         -0.00176        -5.72349        -1.00865
C          1.18978        -5.02595        -0.41175
C          2.46070        -5.74950        -0.13846
C          3.73529        -4.98583        -0.32949
C          4.82873        -5.49715         0.59279
C          6.19118        -4.70966         0.61004
C          7.45795        -5.55586         0.48065
C          8.66458        -4.76788         0.78077
C         -7.52194        -7.11921        -0.08274
C         -6.31926        -7.91746        -0.43369
C         -5.14308        -7.22676        -1.05706
C         -3.81863        -7.95253        -1.18534
C         -2.52995        -7.19726        -1.24625
C         -1.21618        -8.04523        -1.20220
C          0.07272        -7.22574        -0.97762
C          1.27046        -7.87165        -0.36303
C          2.43179        -7.08296         0.15917
C          3.66370        -7.83288         0.55248
C          4.93926        -7.03176         0.57334
C          6.16509        -7.61831        -0.09392
C          7.43736        -6.90301         0.32460
C         -6.08627        -9.26815         0.13196
C         -4.96265        -9.96138        -0.10689
C         -3.75204        -9.46243        -0.87038
C         -2.49694        -9.84164        -0.07737
C         -1.28081        -9.24911        -0.24320
C         -0.01186        -9.92720         0.05255
C          1.20170        -9.32730        -0.08425
C          2.52634       -10.02809        -0.31822
C          3.68177        -9.37345         0.48362
C          5.06498        -9.87848         0.10920
C          6.17265        -9.12807        -0.01404
O          0.51001        -1.63397         1.37450
O          3.66066        -4.52439        -1.72920
O          2.46422         2.23600         2.24378
O         -4.36570         0.71653         2.02080
O         -6.08589        -5.17521        -2.13698
O         -2.62112        -5.90039         0.70732
H         -2.50848        -5.00682         1.12521
O         -2.25158         2.08272         1.95677
O          8.98554         0.04592        -1.66588
O         -8.27126        -0.20570        -1.37615
O          4.67054         3.15835         2.12151
O          4.29296        -0.45991        -1.52053
O         -6.13109        -7.87292        -1.90420
O         -0.89723         8.59386        -2.01182
O         10.58272        -2.07092        -1.12546
H         10.43687        -1.48196        -1.89705
O          2.44289         5.56772        -0.68741
O          2.85929        -2.80710         1.38931
H          3.07389        -3.73811         1.67846
O          0.81146        -4.38507         0.88052
O          3.81645         9.47556         0.52287
O          7.59344         2.20982        -1.98869
H          7.68582         1.40398        -2.54981
O         -1.16128         3.79705        -1.11446
O         -5.80293         5.98973         1.53697
O         -7.26214         3.33213         1.90281
O         -8.10731        -3.78550         1.47057
O          4.40145        -7.53268         1.81144
O          3.44239        -9.85908         1.83015
H          3.96787        -9.28466         2.43442
O         -5.78867         7.51021        -1.58051
O         -1.87436        -0.78732        -1.49053
O          6.87815        -0.81458         1.10112
O          7.30692        -3.51761        -1.39760
O          7.01204         4.79776        -2.21084
H          7.42505         3.91375        -2.42699
O         -4.79109        -0.50466        -1.27199
O         -3.24078        -7.51271        -2.45986
O         -0.62771        -2.81895        -1.95708
O         -4.38456         3.50634         2.22491
O         -0.42303         1.41065        -0.88292
O         -3.18613         5.79856         1.88459
H         -3.85098         5.55193         2.57004
O          7.33218         3.10439         1.57091
O          5.33821         7.32394         1.63671
O         -9.20017        -4.93552        -1.83834
H         -8.36830        -5.05047        -2.34699
O         -2.84315         6.05745        -1.68952
O         -3.63878       -10.18816        -2.10637
H         -2.90050        -9.75113        -2.60491
O          0.03624         8.79970         1.05931
O         -3.71447        -4.00572        -2.21811
O         -9.82218         1.89105        -2.00512
H         -9.44038         1.12486        -2.49130
O          1.16449        -7.66744        -1.84344
O          6.32369        -4.10172         1.88307
O         10.72102         1.99205        -1.62692
H         10.62084         1.18025        -2.17329
O         -2.60114        -3.17934         1.13364
H         -3.38230        -2.77058         1.56919
O         -0.57194        -5.29859        -2.27923
O         -8.19148        -1.35466         2.06239
H         -7.40378        -1.39385         2.66705
O         -3.57603         8.34335         1.90111
H         -2.67287         8.32454         2.27947
O          3.38104         5.36465         2.84509
H          3.93075         4.70091         3.31495
O          7.17023         5.61602         1.96355
H          7.71306         4.82184         2.19035
O          4.35569         0.19970         1.98158
H          4.11846         0.84206         2.68714
O          5.96197        -7.27799        -1.50629
H          6.66830        -7.71147        -2.02942
O          2.79362        -9.97701        -1.72250
H          2.21250        -9.30255        -2.14315
O          5.25006         1.61726        -1.24719
O          1.48796         3.11214        -1.05785
H          0.63882         3.27288        -1.54004
O          0.87696         0.54738         2.41794
H          0.63620        -0.39538         2.59993
O         10.06562         2.90168         1.82121
H          9.25178         2.41475         2.07062
O         -5.75342        -1.05429         2.07557
O          1.96174        -1.20546        -1.72154
H          2.76555        -1.12304        -2.28968
O          5.05136         6.26295        -1.83776
H          4.13081         6.57320        -1.97944
O         -7.35361         5.49904        -1.68512
H         -6.84730         6.24268        -2.09190
O          0.03566         3.19416         2.31730
H          0.38190         2.38848         2.77298
O         -3.75285         8.86726        -1.68468
H         -4.08349         8.33795        -2.44279
O         -1.13987        -8.81244        -2.35760
O          9.28983        -1.82274         2.26940
H          8.51933        -2.31372         2.62761
O          2.30897         7.85498         2.18993
H          2.48327         8.81721         2.26360
O          5.19812        -2.66587        -2.32796
H          5.02788        -3.56593        -2.68989
O        -11.19412         3.52836        -0.36117
H        -11.09369         3.49877        -1.33784
O          4.16590        -5.15800         1.84252
H          4.89030        -4.76052         2.41424
H         12.05637        -1.01154         1.06627
H         12.15293         1.37589         0.78200
H         11.07294         3.62297         0.18320
H          9.90255         5.49027        -1.01899
H          7.70706         7.10074         0.06797
H          6.79521         8.69539        -2.24870
H          4.90561        10.25651        -2.30897
H          2.30863        10.46977        -2.16270
H         -0.38294        10.66702        -1.61501
H         -2.42498        10.80443        -0.04077
H         -4.79335        10.93824         0.89214
H         -6.91360        10.09970         0.16191
H         -8.14047         7.59641         0.90641
H         -9.77059         5.50319        -0.19093
H        -10.31990         2.57482         1.25170
H        -12.13270         1.19448        -0.61788
H        -12.18453        -1.20352        -0.23203
H        -11.05245        -3.34220         0.16002
H         -9.74178        -5.64726         0.03961
H         -8.43572        -7.67504         0.18344
H         -6.89784        -9.72251         0.72113
H         -4.87765       -10.98410         0.29330
H         -2.55728       -10.76405         0.52479
H         -0.06220       -11.01255         0.23915
H          2.46474       -11.10375        -0.00502
H          5.16848       -10.97516         0.07577
H          7.13733        -9.62760        -0.20625
H          8.38264        -7.47129         0.33335
H          9.53963        -5.27623         1.21726
H         10.69530        -3.06862         1.32299
