         490
 CSIRO Nanostructure Databank - Neutral Graphene Oxide Data Set
C         37.61117        49.78331         0.64175
C         36.40578        50.41934         0.91943
C         37.57827        52.52436         1.14837
C         36.38783        51.79311         1.17584
C         40.16580        48.56822        -0.24256
C         40.08397        49.82251         0.35680
C         38.82516        50.50525         0.61789
C         40.08622        52.70204         0.70934
C         38.80476        51.90271         0.88517
C         40.09982        54.06731         1.34145
C         42.61393        48.48940         0.05485
C         41.39102        47.90024        -0.35202
C         42.62264        49.80604         0.57151
C         41.32541        50.44168         0.83962
C         42.61661        52.61950         1.24465
C         41.31219        51.91590         1.14938
C         42.55294        54.00458         1.47910
C         41.28897        54.66759         1.62629
C         45.08302        45.70532        -0.42464
C         43.88746        46.39980        -0.35818
C         45.09776        48.46705         0.17180
C         43.86787        47.77447        -0.05029
C         45.09137        49.85196         0.53374
C         43.84255        50.51375         0.79548
C         45.12949        52.49533         1.71383
C         43.83045        51.89319         1.18567
C         45.11404        54.02648         1.76349
C         43.80069        54.77518         1.66125
C         45.02396        56.80998         1.05525
C         43.84421        56.16154         1.18381
C         47.61181        44.21849        -0.75950
C         47.57367        45.60267        -0.28474
C         46.31220        46.36381        -0.23346
C         47.57576        48.50159        -0.05205
C         46.33420        47.75954         0.00943
C         47.55970        49.92687         0.25546
C         46.34012        50.57569         0.60424
C         47.58826        52.62800         1.07868
C         46.37130        51.93275         1.04183
C         47.65749        54.04592         1.62267
C         46.34712        54.77724         1.46956
C         47.52230        56.91548         1.10160
C         46.29444        56.14005         1.25584
C         47.52455        58.29094         1.19203
C         49.98079        44.40591        -1.37634
C         48.77592        43.64193        -1.15503
C         49.99525        45.76351        -1.16532
C         48.88137        46.43688        -0.48647
C         49.92133        48.76579        -0.88306
C         48.75005        47.89442        -0.48744
C         50.08763        49.83008         0.23822
C         48.78909        50.62050         0.38048
C         50.13165        52.63334         1.12155
C         48.80586        51.96786         0.76335
C         50.10563        54.14913         0.96304
C         48.83538        54.83833         1.08961
C         49.97904        56.98098         0.41679
C         48.77419        56.20012         0.91766
C         49.93549        58.44106         0.80452
C         48.74080        59.03907         1.10632
C         52.38606        41.62836        -1.78370
C         51.22557        42.27770        -1.98307
C         52.45235        44.46688        -1.80380
C         51.14238        43.76909        -2.13448
C         52.43448        45.83090        -1.66273
C         51.12855        46.59287        -1.72472
C         52.39781        48.68298        -1.10119
C         51.20200        47.99080        -1.13894
C         52.34417        50.20024        -0.97746
C         51.27265        50.72135        -0.02922
C         52.40717        52.92772        -0.12250
C         51.29345        52.01328         0.36475
C         52.56129        54.10528         0.85835
C         51.27292        54.87477         0.86395
C         52.45361        57.05904         0.90910
C         51.29428        56.32513         0.77512
C         52.42356        58.52316         0.74300
C         51.17693        59.19783         0.70023
C         52.31070        61.34403         0.43118
C         51.14803        60.60194         0.55464
C         54.85715        40.18652        -1.18475
C         54.86207        41.56815        -1.44147
C         53.66704        42.31177        -1.66843
C         54.93709        44.44078        -1.50541
C         53.69154        43.72203        -1.72554
C         54.93866        45.85268        -1.46893
C         53.69762        46.62017        -1.84480
C         54.88367        48.70337        -1.17015
C         53.65356        48.01633        -1.28793
C         54.86637        50.13101        -0.96167
C         53.69468        50.81600        -0.73260
C         54.89408        52.86219        -0.13882
C         53.71239        52.20140        -0.33344
C         54.95665        54.18892         0.46036
C         53.82395        54.93958         0.71771
C         54.97101        57.26189         1.01509
C         53.75961        56.36802         1.30952
C         54.89025        58.63155         0.66753
C         53.61091        59.29425         0.62462
C         54.80437        61.47930         0.35324
C         53.57540        60.71422         0.45950
C         54.80583        62.90004         0.25583
C         57.23591        40.17939        -0.58081
C         56.00922        39.50369        -0.80117
C         57.32715        41.54200        -0.85868
C         56.20032        42.25261        -1.57354
C         57.33785        44.42418        -0.94998
C         56.14931        43.73325        -1.29896
C         57.31992        45.83918        -0.89953
C         56.13599        46.55869        -1.19044
C         57.38379        48.72507        -1.04695
C         56.12879        48.00720        -1.16031
C         57.40816        50.13478        -1.07629
C         56.12533        50.91443        -1.24072
C         57.36843        53.04898        -0.76514
C         56.20639        52.14100        -0.32681
C         57.44724        54.23140         0.15014
C         56.30056        54.61954         0.78044
C         57.41174        57.31226         0.57093
C         56.26062        56.74670         1.15567
C         57.31395        58.67922         0.26923
C         56.09052        59.37093         0.45074
C         57.27694        61.55740         0.30218
C         56.06131        60.81466         0.34054
C         57.25477        62.99130         0.28217
C         55.97689        63.62539         0.21128
C         59.57240        37.29880         0.05802
C         58.41861        37.99209        -0.00057
C         59.72048        40.13228        -0.13002
C         58.37784        39.48931         0.14637
C         59.74776        41.53623        -0.30135
C         58.53877        42.27550        -0.58757
C         59.77803        44.40159        -0.15418
C         58.54067        43.68094        -0.61624
C         59.79268        45.81086        -0.62640
C         58.53867        46.58879        -0.40567
C         59.84428        48.69459        -0.86322
C         58.60712        48.01510        -0.88191
C         59.86831        50.12532        -0.86085
C         58.63450        50.84418        -0.92254
C         59.85801        52.93335        -0.47600
C         58.65729        52.25698        -0.71693
C         59.85715        54.36767        -0.17861
C         58.67548        55.00356         0.17518
C         59.87741        57.21377         0.03716
C         58.55428        56.50263        -0.05112
C         59.84864        58.69176        -0.10803
C         58.52916        59.43068        -0.10518
C         59.75508        61.53810         0.34977
C         58.55105        60.87288         0.20275
C         59.72743        62.98991         0.75864
C         58.47921        63.72359         0.32501
C         59.73027        65.83873         0.25571
C         58.54505        65.14360         0.25287
C         62.09922        35.77648         0.32102
C         62.06834        37.20591         0.15892
C         60.87452        37.95253         0.09610
C         62.21532        40.08856         0.19339
C         60.90463        39.37674        -0.02002
C         62.22601        41.51172        -0.28174
C         61.01711        42.22901        -0.36531
C         62.27504        44.32214        -0.50810
C         61.04939        43.64526        -0.43355
C         62.26208        45.81684        -0.27859
C         61.08409        46.47807        -1.00938
C         62.29970        48.65706        -0.62558
C         61.08843        47.97968        -0.77249
C         62.34983        50.10052        -0.67114
C         61.10443        50.83184        -0.77365
C         62.32400        53.01276        -0.81180
C         61.08831        52.24108        -0.65533
C         62.30677        54.45642        -0.49765
C         61.11376        55.09796        -0.21896
C         62.32491        57.36742        -0.24619
C         61.06352        56.54738        -0.06340
C         62.25025        58.64242         0.60530
C         61.04720        59.44682         0.23114
C         62.27840        61.53199         0.55331
C         61.03352        60.84041         0.36550
C         62.30356        63.00170         0.88382
C         61.02960        63.67416         0.37976
C         62.30719        65.93337         0.39472
C         61.02774        65.14911         0.16286
C         62.36529        67.14372        -0.51074
C         64.58067        35.69720         0.39743
C         63.25038        35.04798         0.40038
C         64.61289        37.04208        -0.27700
C         63.34368        37.85800        -0.22894
C         64.66309        39.99823        -0.28224
C         63.44670        39.32953        -0.23609
C         64.70334        41.43709        -0.32339
C         63.46457        42.17896        -0.41496
C         64.77154        44.28298        -0.72334
C         63.47801        43.59161        -0.57107
C         64.81427        45.80655        -0.70522
C         63.55340        46.54426        -0.56330
C         64.81516        48.64625        -0.40513
C         63.56219        47.92425        -0.53820
C         64.81063        50.05961        -0.34607
C         63.57916        50.77165        -0.56536
C         64.89310        52.93687        -0.40335
C         63.65698        52.22636        -0.77951
C         64.90966        54.41114        -0.45060
C         63.58931        55.19766        -0.52266
C         64.76358        57.20478         0.35203
C         63.59739        56.58573        -0.02706
C         64.76747        58.65458         0.83096
C         63.51730        59.42481         0.50695
C         64.79278        61.54450         0.47006
C         63.51513        60.81663         0.49494
C         64.78810        62.97704         0.36928
C         63.56560        63.70431         0.41431
C         64.79542        65.77608         0.02810
C         63.57426        65.09502         0.24266
C         64.77053        67.29427        -0.01177
C         63.51932        67.78816        -0.69361
C         67.10849        32.81582         0.82866
C         65.91093        33.45709         0.72956
C         67.17788        35.58367         0.30039
C         65.86452        34.92608         0.61330
C         67.19775        37.02570        -0.08139
C         65.94024        37.78530        -0.55386
C         67.23344        39.96759        -0.47570
C         65.95475        39.22053        -0.01197
C         67.16654        41.38105         0.06255
C         65.93684        42.16027        -0.25657
C         67.26090        44.30595        -0.27363
C         65.99052        43.54290        -0.38051
C         67.23462        45.78430        -0.06158
C         66.06130        46.50415        -0.32453
C         67.26854        48.63380        -0.03528
C         66.04114        47.92771        -0.23092
C         67.24757        50.05889        -0.03563
C         66.03989        50.77404        -0.14565
C         67.28993        52.95131         0.17568
C         66.04729        52.23178        -0.09758
C         67.29368        54.36356         0.30039
C         66.07867        55.11543         0.10988
C         67.25165        57.17486         0.81075
C         66.01005        56.47277         0.40994
C         67.26425        58.68703         0.80202
C         66.00743        59.35326         0.28030
C         67.25974        61.53628         0.39143
C         66.00590        60.85257         0.45065
C         67.26625        62.94738         0.25782
C         66.02798        63.66538         0.20100
C         67.28527        65.79255        -0.09932
C         66.02112        65.08294         0.02085
C         67.30103        67.19000        -0.33455
C         66.01217        67.89761        -0.68201
C         67.28229        70.02690        -0.45122
C         66.09808        69.38207        -0.42616
C         69.59797        31.51009         1.87193
C         69.64388        32.68798         0.93373
C         68.37060        33.50899         0.90681
C         69.66507        35.59896         0.72275
C         68.42145        34.89290         0.76950
C         69.67037        37.06166         0.77406
C         68.36082        37.84989         0.39908
C         69.68615        39.94715         0.30853
C         68.47050        39.25033         0.05584
C         69.72636        41.35564         0.23759
C         68.45365        42.08167         0.29273
C         69.63808        44.22920         0.75845
C         68.50058        43.55342         0.07375
C         69.57809        45.74834         0.87880
C         68.41269        46.47924         0.32762
C         69.71030        48.56694         0.55012
C         68.47215        47.89150         0.24866
C         69.81601        50.01034         0.28606
C         68.52110        50.80122        -0.01771
C         69.74979        52.91547         0.47994
C         68.51912        52.24263         0.24988
C         69.76219        54.34502         0.58166
C         68.52923        55.06608         0.51638
C         69.74630        57.20936         0.73156
C         68.53523        56.47347         0.66747
C         69.75143        58.65902         0.69211
C         68.53791        59.40050         0.61879
C         69.75689        61.52110         0.42101
C         68.51513        60.80421         0.45756
C         69.76573        62.94765         0.30523
C         68.51461        63.67239         0.20895
C         69.77394        65.87121         0.22471
C         68.50173        65.06641         0.05559
C         69.77736        67.11191        -0.66340
C         68.51389        67.90982        -0.49471
C         69.77439        70.01778        -0.84835
C         68.53296        69.30523        -0.62464
C         69.77793        71.40901        -1.11506
C         72.01266        31.57998         2.10311
C         70.73938        30.96853         2.36219
C         72.08118        32.82433         1.51688
C         70.90719        33.50701         1.08945
C         72.12495        35.66682         0.74735
C         70.90387        34.89582         0.81378
C         72.13887        37.02969         0.64651
C         70.93281        37.81355         0.65091
C         72.14567        39.98691         0.65581
C         70.92340        39.20771         0.54504
C         72.19547        41.33026         0.51844
C         71.00430        42.15353         0.10747
C         72.03137        44.26253         1.15599
C         70.93299        43.53974         0.75880
C         71.97988        45.67604         1.36672
C         70.85276        46.43841         1.11013
C         72.00698        48.64161         1.39889
C         70.85335        47.88968         1.02078
C         72.04397        50.02058         1.33328
C         70.96908        50.76470         0.78952
C         72.17030        52.93001         0.91994
C         70.97092        52.18523         0.70447
C         72.18443        54.30224         0.91346
C         70.98206        55.05748         0.75981
C         72.19570        57.24118         0.78661
C         70.98314        56.49417         0.76400
C         72.19802        58.61470         0.72003
C         70.98648        59.36248         0.64672
C         72.20434        61.52641         0.48107
C         70.98582        60.79757         0.52157
C         72.21414        62.89434         0.33422
C         71.00870        63.63993         0.24370
C         72.21518        65.78125        -0.13092
C         71.04855        65.07136         0.06161
C         72.21865        67.19626        -0.31978
C         71.05778        67.90430        -0.54275
C         72.22108        70.06847        -0.97531
C         71.02691        69.32957        -0.79418
C         72.19347        71.43255        -1.22374
C         70.96254        72.10531        -1.30159
O         48.49467        45.86114         0.80672
O         69.22338        44.85516         2.00745
O         67.59719        41.59959         1.44151
O         59.16200        59.07956        -1.38702
O         63.05332        52.67053        -2.03773
O         68.27595        43.93231        -1.31299
O         51.91972        50.72402        -2.25257
O         67.46694        35.99449        -1.10252
O         56.40509        55.53334         1.84037
O         64.41801        54.98615        -1.71221
O         44.44538        54.54115         2.97741
O         41.12885        50.97838         2.23262
O         64.89953        45.05973        -1.97754
O         61.10078        64.18612        -0.96642
O         69.43399        50.38983        -1.08350
O         63.79515        37.13086        -1.46424
O         65.21099        35.65173         1.72771
O         67.16990        57.96343         2.05831
O         68.74147        37.57114         1.78439
O         69.73860        66.55881        -2.06530
O         62.09754        58.19188         2.00909
H         61.87472        58.98506         2.54341
O         69.75735        66.34645         1.60593
H         69.84238        65.56525         2.19164
O         69.59287        67.67994        -2.97004
H         70.52732        67.90881        -3.19642
O         50.85551        46.78946        -3.15923
H         51.67933        47.16940        -3.54905
O         50.88598        44.01788        -3.54848
H         50.82145        45.00187        -3.66123
O         47.90666        53.89322         3.06801
H         47.70639        54.75113         3.49945
O         53.75404        46.85834        -3.31743
H         54.48533        47.49234        -3.48705
O         71.16362        42.44686        -1.32825
H         70.97869        41.62327        -1.82753
O         65.98123        59.11900        -1.15852
H         66.61618        59.73046        -1.58687
O         64.71795        67.74110         1.38028
H         65.53643        67.43087         1.82351
O         49.58247        49.45425        -2.10535
H         50.39491        50.00194        -2.36343
O         49.89979        56.96097        -1.05108
H         49.03820        57.35520        -1.30264
O         50.30811        49.12462         1.48221
H         50.44063        49.80039         2.18272
O         58.11893        39.74509         1.57397
H         58.88242        39.38541         2.07474
O         65.82316        67.70564        -2.11847
H         66.67523        67.91046        -2.56013
O         66.05049        37.87404        -1.98829
H         66.28413        36.97512        -2.31587
O         59.72692        44.42419         1.39803
H         59.60763        43.49126         1.68682
O         64.80695        58.66341         2.27929
H         63.96799        58.24519         2.58560
O         40.25815        52.88019        -0.73982
H         39.53196        53.45630        -1.05845
O         62.33266        40.15949         1.68102
H         63.21397        40.54027         1.88720
O         57.16720        53.55999        -2.11306
H         57.65119        54.41516        -2.18657
O         58.19812        56.52528        -1.49065
H         58.43994        57.43171        -1.82202
O         58.33460        46.72051         1.05751
H         58.66746        45.88489         1.47341
O         62.32296        63.11597         2.33890
H         62.15028        64.05698         2.56461
O         61.32160        46.27563        -2.43953
H         60.60885        46.72994        -2.93560
O         67.29769        40.14153        -1.90171
H         66.94223        39.32301        -2.33080
O         56.56799        51.61759         0.98326
H         56.36333        52.29805         1.65890
O         62.26529        66.37783         1.78003
H         63.04459        66.97768         1.90444
O         45.21251        52.02882         3.09259
H         44.71285        52.68359         3.63415
O         50.29188        52.33768         2.54246
H         49.54092        52.77938         3.00949
O         69.72011        32.10098        -0.43045
H         69.78085        32.84929        -1.06233
O         56.54142        42.15509        -3.01931
H         56.52537        41.20221        -3.25317
O         62.07019        45.99721         1.15399
H         61.25355        45.50432         1.42346
O         52.73418        53.50635         2.17730
H         52.78426        54.24904         2.82163
O         53.70559        56.17204         2.76153
H         54.59864        55.85545         3.02827
O         62.36611        57.80955        -1.62610
H         62.61331        57.04645        -2.19031
O         56.01372        51.25497        -2.64509
H         56.46000        52.11984        -2.80983
O         59.68409        63.00221         2.22819
H         58.83099        62.60347         2.50165
O         52.00085        53.39926        -1.42646
H         51.92421        52.57118        -1.98615
O         66.03146        39.09977         1.42538
H         66.49629        39.88415         1.79687
H         37.61899        48.69918         0.46262
H         35.47179        49.84130         0.94236
H         37.53314        53.60508         1.34082
H         35.43922        52.30231         1.39447
H         39.25973        48.07421        -0.62030
H         39.16457        54.62408         1.49078
H         41.39010        46.89890        -0.80145
H         41.29077        55.70011         2.00645
H         45.05648        44.62547        -0.61903
H         42.95051        45.84914        -0.50848
H         45.02861        57.84822         0.69631
H         42.90569        56.65183         0.88806
H         46.68623        43.62735        -0.78755
H         46.59756        58.84045         1.40156
H         48.75799        42.58588        -1.45450
H         48.69102        60.11626         1.31901
H         52.36855        40.53104        -1.73628
H         50.31072        41.68729        -2.13317
H         52.23038        62.43083         0.29945
H         50.18282        61.12417         0.50700
H         53.91605        39.62097        -1.20811
H         53.85449        63.44816         0.23048
H         55.92367        38.43241        -0.57848
H         55.91677        64.72076         0.15628
H         59.53260        36.20094         0.02431
H         57.47059        37.43616        -0.02479
H         59.71756        66.93719         0.29731
H         57.60818        65.71897         0.21070
H         61.14714        35.23800         0.43009
H         61.44383        67.48451        -1.00608
H         63.19343        33.96812         0.59715
H         63.58275        68.66706        -1.35125
H         67.11758        31.71793         0.87930
H         64.97268        32.88549         0.74038
H         67.30631        71.11678        -0.31083
H         65.16286        69.94460        -0.29061
H         68.62832        31.03770         2.08412
H         68.82818        71.95466        -1.19268
H         72.92765        31.08947         2.46251
H         70.70280        30.06805         2.99230
H         73.05600        33.33016         1.46473
H         73.08608        35.13524         0.74477
H         73.10851        37.53894         0.56126
H         73.07472        39.45619         0.90983
H         73.16580        41.83881         0.61488
H         73.02112        43.78642         1.20605
H         72.93223        46.17373         1.59707
H         72.87925        48.11371         1.80596
H         72.93667        50.54138         1.70549
H         73.11870        52.39357         1.05794
H         73.14271        54.81844         1.05689
H         73.16055        56.71861         0.82493
H         73.16599        59.13220         0.71202
H         73.16545        61.00313         0.56177
H         73.18112        63.41300         0.30375
H         73.18894        65.27196        -0.13773
H         73.19255        67.70580        -0.31071
H         73.19201        69.55583        -0.93609
H         73.13228        71.98417        -1.37001
H         70.93862        73.18325        -1.51279
