         477
 CSIRO Nanostructure Databank - Neutral Graphene Oxide Data Set
C         37.72458        50.11392         1.01061
C         36.52163        50.80829         0.87771
C         37.67233        52.79133         0.08086
C         36.51290        52.15331         0.41116
C         40.26451        48.60385         0.89461
C         40.21381        50.01567         0.85904
C         38.95232        50.70670         0.69889
C         40.07744        52.88688         0.95300
C         39.00933        52.11058         0.13706
C         40.12375        54.36238         0.66791
C         42.69780        48.62428         0.89043
C         41.48335        47.92969         0.89820
C         42.69118        50.04784         0.88297
C         41.44036        50.74538         0.88811
C         42.58419        52.89468         0.61742
C         41.42191        52.19356         0.79514
C         42.54386        54.31774         0.20185
C         41.25255        55.02305         0.37624
C         45.17633        46.00137         1.92419
C         44.01302        46.58596         1.57927
C         45.22755        48.69884         1.05838
C         43.99922        47.86393         0.78238
C         45.17789        50.10464         0.88988
C         43.92457        50.77141         0.82713
C         45.14786        52.96918         0.50472
C         43.90281        52.26394         0.98872
C         45.13005        54.33071         0.23562
C         43.84390        55.05315         0.02844
C         45.07617        57.17579        -0.01707
C         43.89611        56.52627         0.07270
C         47.66106        44.51954         2.01018
C         47.64989        45.95715         1.92722
C         46.46286        46.65352         1.73345
C         47.66494        48.79482         1.29962
C         46.45560        48.06639         1.38130
C         47.65548        50.17042         0.92304
C         46.40903        50.85470         0.82185
C         47.61851        52.94852         0.35163
C         46.39132        52.25826         0.56886
C         47.59429        54.35132         0.07281
C         46.35623        55.05178         0.04273
C         47.54520        57.16456        -0.38602
C         46.34288        56.47245        -0.12661
C         47.55632        58.59993        -0.59780
C         50.13683        44.47513         2.21301
C         48.81553        43.82863         2.13325
C         50.22754        45.94292         2.04810
C         48.93657        46.67269         2.07146
C         50.21926        48.75065         1.30836
C         48.93653        48.16051         1.70327
C         50.17483        50.08835         0.57275
C         48.88400        50.87556         0.73664
C         50.10794        52.97701         0.21380
C         48.86574        52.24637         0.43253
C         50.06463        54.36366        -0.13245
C         48.81312        55.05552        -0.18310
C         49.99957        57.13182        -0.81044
C         48.78336        56.44968        -0.46061
C         49.89823        58.51631        -1.32620
C         48.65303        59.24873        -1.04698
C         51.92932        41.91911         0.18052
C         51.13467        42.32305         1.19938
C         52.66179        44.35498         1.54225
C         51.36806        43.62989         1.82215
C         52.71594        45.87589         1.76583
C         51.42366        46.62639         1.84500
C         52.69048        48.79274         1.31310
C         51.39581        48.04388         1.45529
C         52.68860        50.18897         0.66037
C         51.39839        50.95641         1.01152
C         52.55460        53.07726         0.28044
C         51.34808        52.34015         0.39794
C         52.51020        54.46093        -0.03664
C         51.27749        55.10099        -0.29285
C         52.48084        57.22777        -0.94933
C         51.23787        56.49506        -0.69040
C         52.45364        58.55832        -1.35942
C         51.19409        59.26836        -1.62272
C         52.42142        61.42883        -1.60521
C         51.25107        60.74336        -1.63586
C         54.88131        40.10475        -0.96507
C         54.88215        41.50415        -0.91141
C         53.09870        42.67750        -0.18066
C         54.87231        44.37939         0.19224
C         53.59030        43.75399         0.53495
C         55.05999        45.81547         0.56873
C         53.99240        46.56570         1.31177
C         55.18503        48.74673         0.67804
C         54.00441        48.06118         1.27423
C         55.27018        50.22190         0.87539
C         53.93782        51.02184         1.00246
C         54.89206        53.33410         0.86370
C         53.81193        52.47396         0.69711
C         55.00156        54.62049         0.26983
C         53.70081        55.36479         0.20797
C         54.97926        57.22489        -0.82737
C         53.74209        56.60002        -0.63260
C         55.00467        58.56863        -1.44693
C         53.70106        59.29194        -1.65385
C         54.91635        61.47549        -1.65996
C         53.71453        60.77715        -1.63024
C         54.96074        62.92888        -1.57568
C         57.23953        40.11694        -0.34004
C         56.04513        39.42018        -0.63521
C         57.23562        41.53514        -0.35775
C         56.01376        42.24664        -0.54123
C         57.21549        44.40492        -0.77457
C         55.94863        43.70244        -0.34853
C         57.26052        45.89878        -0.53358
C         56.14726        46.59114        -0.09050
C         57.24257        48.74840        -0.80034
C         56.16460        48.04018         0.00898
C         57.47054        50.16994        -0.35922
C         56.51995        50.86417         0.40055
C         57.66052        52.98083        -0.13099
C         56.77023        52.22718         0.64430
C         57.44374        54.40349        -0.46082
C         56.22856        55.21635        -0.09541
C         57.51632        57.34269        -0.55085
C         56.21524        56.57048        -0.53077
C         57.43618        58.69702        -1.21259
C         56.25460        59.35897        -1.42103
C         57.38719        61.51919        -1.79497
C         56.21201        60.78959        -1.69836
C         57.40971        63.00397        -2.07247
C         56.10108        63.64210        -1.68515
C         59.66707        37.29562         0.28365
C         58.48664        37.99680         0.10517
C         59.71384        40.09946         0.03429
C         58.47994        39.39903        -0.05565
C         59.74695        41.53086        -0.11268
C         58.48700        42.27125        -0.24791
C         59.74342        44.37718        -0.37813
C         58.46361        43.64588        -0.34353
C         59.75394        45.82773        -0.73090
C         58.48949        46.59280        -0.82963
C         59.78904        48.67595        -1.11906
C         58.54992        47.97853        -0.90025
C         59.83516        50.08050        -1.08038
C         58.65834        50.83984        -0.74543
C         59.91986        52.94672        -1.15650
C         58.72648        52.25970        -0.73320
C         59.93929        54.35593        -1.17272
C         58.67361        55.10679        -1.06996
C         59.94171        57.21300        -1.21062
C         58.73746        56.57197        -1.00757
C         59.99649        58.72324        -1.10403
C         58.69450        59.33946        -1.58641
C         59.94485        61.56219        -1.62992
C         58.67900        60.82934        -1.87827
C         59.88714        62.97487        -1.39671
C         58.65801        63.69036        -1.53037
C         59.81810        65.75418        -0.93732
C         58.66175        65.07228        -1.30505
C         62.18019        35.79887         0.43177
C         62.15825        37.21724         0.38151
C         60.91948        37.95210         0.28508
C         62.19521        40.06762         0.16051
C         60.94227        39.37596         0.17076
C         62.22000        41.48782        -0.03280
C         60.97974        42.18568        -0.20041
C         62.23124        44.40021        -0.44396
C         60.98726        43.59125        -0.74753
C         62.26391        45.73407        -1.02115
C         61.00740        46.40441        -1.30370
C         62.34452        48.58499        -1.27209
C         61.03196        47.93204        -1.46011
C         62.31421        50.02152        -1.00248
C         61.07246        50.79427        -1.23683
C         62.41156        52.87055        -1.72754
C         61.11879        52.17707        -1.33606
C         62.42696        54.34741        -1.40767
C         61.16125        55.08042        -1.31442
C         62.48064        57.17291        -1.66380
C         61.15885        56.47519        -1.38131
C         62.47361        58.65894        -1.41295
C         61.20807        59.36888        -1.82587
C         62.34406        61.54238        -1.17487
C         61.16396        60.86252        -1.52527
C         62.32124        62.95079        -0.90793
C         61.08644        63.67068        -1.03982
C         62.26358        65.77883        -0.44596
C         61.05776        65.08275        -0.79810
C         62.27156        67.18878        -0.14557
C         64.61754        35.76991         0.52428
C         63.36596        35.09788         0.47839
C         64.62629        37.19442         0.52208
C         63.39883        37.91805         0.40823
C         64.67374        40.03034         0.29917
C         63.41814        39.34489         0.29206
C         64.69482        41.46822         0.08628
C         63.47159        42.16613        -0.07992
C         64.80551        44.27185        -0.55033
C         63.53022        43.63358        -0.21107
C         64.83603        45.64983        -1.08746
C         63.52959        46.41411        -1.29795
C         64.81943        48.57675        -1.03630
C         63.54984        47.89597        -1.22590
C         64.87405        49.97616        -0.99524
C         63.62728        50.74821        -0.90814
C         64.87748        52.82404        -1.18266
C         63.66301        52.18358        -1.20765
C         64.90281        54.28687        -1.41420
C         63.61259        55.00623        -1.28492
C         64.91199        57.18974        -0.94079
C         63.58394        56.46705        -0.87999
C         64.88496        58.62690        -0.89024
C         63.64550        59.33002        -1.16302
C         64.87704        61.53212        -0.75108
C         63.62879        60.81376        -1.20663
C         64.69904        62.86229        -0.05200
C         63.49317        63.64061        -0.49940
C         64.69636        65.73202         0.03414
C         63.49161        65.05177        -0.31062
C         64.76503        67.23740         0.09424
C         63.40524        67.86944         0.16147
C         67.05200        32.94486         0.14594
C         65.90022        33.64284         0.26521
C         67.06120        35.75451         0.85056
C         65.86295        35.05967         0.57908
C         67.09225        37.17700         0.86762
C         65.86791        37.89799         0.63185
C         67.12818        40.08116         0.80750
C         65.86648        39.31055         0.52413
C         67.18724        41.37975         0.04082
C         65.92841        42.16891        -0.00250
C         67.29396        44.18855        -0.65352
C         65.97858        43.54273        -0.36655
C         67.34045        45.66636        -0.95006
C         66.08022        46.43541        -0.93876
C         67.28654        48.56162        -0.64428
C         66.06441        47.83110        -0.89939
C         67.31961        49.95588        -0.63840
C         66.10491        50.70040        -0.87748
C         67.31811        52.85119        -0.60334
C         66.10912        52.11185        -0.90150
C         67.33437        54.24671        -0.65211
C         66.18505        55.03317        -1.15463
C         67.36682        57.23668        -0.70545
C         66.10624        56.49658        -0.88262
C         67.31514        58.64314        -0.29118
C         66.06546        59.34592        -0.50493
C         67.15453        61.45981         0.27353
C         66.02146        60.73197        -0.31460
C         67.26557        62.90669        -0.16748
C         65.97312        63.65570         0.00168
C         67.17565        65.74944         0.48965
C         65.93395        65.02604         0.17931
C         67.12182        67.06490         0.93469
C         65.73159        67.61551         1.23960
C         66.86523        69.63801         2.09374
C         65.74135        69.06617         1.61104
C         69.69554        31.76339        -0.88867
C         69.64898        32.94759         0.00512
C         68.35285        33.53881         0.50490
C         69.59071        35.69229         1.28509
C         68.31438        34.96320         1.02604
C         69.56057        37.20670         1.55364
C         68.34273        37.90545         0.97489
C         69.66608        39.99315         0.76584
C         68.40267        39.27460         0.77062
C         69.72849        41.35245         0.43196
C         68.51003        42.05910        -0.04755
C         69.84372        44.15949        -0.48594
C         68.51627        43.57492         0.01861
C         69.84086        45.67053        -0.38216
C         68.65280        46.44918        -0.92828
C         69.77539        48.54630        -0.15486
C         68.48012        47.76663        -0.16011
C         69.76661        49.96857        -0.15857
C         68.53723        50.68976        -0.34515
C         69.74136        52.78931         0.04892
C         68.52769        52.10225        -0.26817
C         69.71997        54.23584         0.32063
C         68.45975        54.99148        -0.07006
C         69.73328        57.15253         0.32426
C         68.61770        56.44789        -0.33764
C         69.65981        58.53446         0.51087
C         68.45004        59.25957         0.24530
C         69.69897        61.45732         0.63841
C         68.41599        60.70540         0.58040
C         69.71721        62.87969         0.52098
C         68.48295        63.63455         0.33868
C         69.66280        65.80345         0.56204
C         68.42321        65.00995         0.48259
C         69.61278        67.20089         1.02691
C         68.31337        67.79652         1.32800
C         69.22197        69.66210         2.81717
C         68.16413        68.99658         2.03950
C         68.88507        70.25759         4.05143
C         72.13677        31.90386        -0.91378
C         70.88597        31.27286        -1.29867
C         72.15657        33.09207        -0.27125
C         70.88671        33.80652         0.01299
C         72.10475        35.78314         1.21459
C         70.87076        35.12569         0.72282
C         72.08253        37.11943         1.44504
C         70.87598        37.89635         1.26952
C         72.13058        40.01324         1.01830
C         70.89681        39.26956         1.03859
C         72.15458        41.35997         0.81540
C         70.96005        42.09278         0.48201
C         72.14580        44.27051         0.53504
C         71.00572        43.48250         0.21862
C         72.13939        45.64050         0.42507
C         70.96972        46.36279        -0.01264
C         72.19720        48.55887         0.02238
C         70.97895        47.83777        -0.04432
C         72.20481        49.93827         0.05031
C         70.99766        50.67827        -0.01292
C         72.17805        52.87209         0.32016
C         70.97459        52.11309         0.10771
C         72.18413        54.23768         0.45829
C         70.97798        55.00249         0.43947
C         72.12353        57.17234         0.91749
C         70.93675        56.39986         0.59283
C         72.07298        58.49770         1.16643
C         70.77074        59.25287         1.25780
C         72.08310        61.43481         1.04689
C         70.87228        60.73529         0.91534
C         72.11914        62.82148         0.93463
C         70.95292        63.56095         0.68824
C         72.15851        65.80406         1.07824
C         71.00614        65.04169         0.59314
C         72.08403        67.16441         1.15638
C         70.83359        67.86298         1.08270
C         71.52942        70.43621         3.15843
C         70.56439        69.76378         2.40084
C         71.16360        71.01568         4.37505
C         69.84245        70.91589         4.82263
O         70.77110        35.06299        -0.75913
O         56.00468        52.89683         1.59297
O         68.93336        34.98558         2.37699
O         64.56525        61.44159        -2.16510
O         70.46956        65.59555        -0.65142
O         67.91939        41.41910        -1.22635
O         62.86628        50.39771         0.32513
O         48.89416        47.71332         3.10277
O         67.39825        44.64599        -2.02462
O         55.15378        46.03522         2.02594
O         50.38448        58.68190        -2.70655
O         54.73537        50.69553         2.14843
O         54.41193        58.66489        -2.79161
O         59.95579        45.37420         0.66942
O         68.71391        54.64580         1.32989
O         65.75284        54.69995        -2.53580
O         68.39181        56.86855        -1.70876
O         53.11445        44.92581         2.79383
O         53.49243        48.65247         2.51913
O         43.11219        54.52276        -1.15307
O         58.69677        59.82738        -2.96982
O         57.61158        54.56913        -1.92603
O         69.15487        32.64392         1.35329
O         53.74820        42.21807        -1.34592
O         50.96763        43.78824         3.20342
O         64.24825        45.79207        -2.43812
O         60.88796        47.04247        -2.61239
O         70.94026        69.26625         1.14414
O         67.48100        61.11892         1.65042
O         62.78802        44.31025         0.90118
O         57.80074        57.63733         0.88640
H         56.96367        57.93872         1.30195
O         70.39438        59.23484         2.67719
H         70.26896        58.29786         2.93779
O         39.53231        52.04877        -1.22061
H         38.89443        51.54742        -1.76969
O         57.25900        44.28764        -2.24807
H         56.92304        43.39650        -2.48571
O         60.99352        43.45286        -2.19867
H         60.17614        42.98503        -2.47087
O         62.47699        52.74350        -3.18645
H         63.16525        53.36240        -3.51354
O         60.14417        59.06610         0.29456
H         59.44433        58.57686         0.79513
O         69.95411        43.81883        -1.89504
H         70.81145        44.16170        -2.22238
O         67.02083        40.53013         2.21113
H         67.09186        39.73596         2.78368
O         43.96092        52.46368         2.47361
H         43.32665        51.83197         2.87702
O         61.14784        59.15083        -3.25662
H         60.27499        59.49389        -3.58170
O         53.47785        55.86764         1.59789
H         53.43857        55.08184         2.18653
O         68.95688        46.78320        -2.30067
H         68.77226        45.97363        -2.83037
O         52.76246        50.00839        -0.76124
H         51.81900        49.86492        -1.09448
O         51.34189        51.14576         2.43667
H         51.65293        50.32967         2.88526
O         68.43967        43.92221         1.42225
H         67.71218        43.41481         1.84085
O         62.77302        56.99728        -3.07174
H         62.22169        57.65581        -3.56283
O         44.09958        47.47136        -0.63654
H         44.97019        47.03583        -0.75710
O         65.39761        67.71862        -1.13246
H         64.81781        67.47574        -1.88451
O         64.42156        62.46540         1.34644
H         64.37946        63.28386         1.88629
O         50.20998        49.80821        -0.80481
O         39.69120        52.73301         2.34593
H         40.29923        53.27285         2.89245
O         56.69583        48.82294        -2.15985
H         57.39198        49.19153        -2.74410
O         63.18233        56.51974         0.51923
H         63.88014        56.09966         1.06364
O         67.46561        62.78961        -1.62198
H         67.58872        63.69235        -1.98580
O         57.51845        63.13773        -3.53314
H         56.82341        62.57408        -3.93503
O         69.38467        37.38176         2.99741
H         68.99131        36.53645         3.32919
O         68.18256        47.38356         1.21513
H         68.12660        48.19917         1.75556
O         65.23887        66.89611         2.41411
H         65.79831        67.15197         3.17726
H         37.69979        49.08827         1.40732
H         35.57473        50.32099         1.14572
H         37.63863        53.81803        -0.31224
H         35.55094        52.67867         0.32037
H         39.33444        48.02073         0.85149
H         39.18272        54.92201         0.78335
H         41.47686        46.83180         0.86769
H         41.21681        56.10600         0.18682
H         45.15131        45.03639         2.44990
H         43.06571        46.07302         1.79717
H         45.07007        58.27371        -0.01125
H         42.95867        57.09750         0.12051
H         46.71254        43.96868         1.96014
H         46.63800        59.17782        -0.43130
H         48.77641        42.73828         2.25394
H         48.60297        60.32406        -1.26647
H         51.73401        40.98273        -0.35872
H         50.29242        41.70367         1.53278
H         52.37980        62.52666        -1.62105
H         50.30735        61.30217        -1.70630
H         53.97568        39.56477        -1.26934
H         54.02433        63.46975        -1.37833
H         56.03497        38.32322        -0.66394
H         56.04332        64.73771        -1.61673
H         59.61195        36.20625         0.40588
H         57.54438        37.43373         0.09117
H         59.75413        66.83862        -0.77941
H         57.73885        65.65380        -1.43226
H         61.23998        35.23241         0.41935
H         61.31891        67.73723        -0.14689
H         63.32587        34.00155         0.51512
H         63.34248        68.95111         0.35039
H         67.02617        31.88216        -0.13160
H         64.95649        33.13478         0.02675
H         66.82764        70.67090         2.47119
H         64.79214        69.61988         1.63218
H         68.75880        31.25183        -1.15124
H         67.85227        70.18589         4.42150
H         73.07715        31.39718        -1.17265
H         70.92814        30.37026        -1.92444
H         73.10982        33.58354        -0.03020
H         73.03533        35.20825         1.32031
H         73.01827        37.62644         1.72299
H         73.07691        39.49166         1.21336
H         73.12147        41.87977         0.83957
H         73.04003        43.78966         0.95533
H         73.03147        46.19698         0.74100
H         73.15535        48.02375         0.05814
H         73.16890        50.45791         0.12436
H         73.14136        52.34667         0.35274
H         73.14861        54.74836         0.58266
H         73.09379        56.65796         0.96386
H         73.00201        59.01125         1.45045
H         73.01939        60.90543         1.26469
H         73.08354        63.33479         1.04714
H         73.09558        65.29137         1.33491
H         72.97716        67.75304         1.40861
H         72.55729        70.51770         2.78193
H         71.91067        71.55246         4.97546
H         69.55271        71.36483         5.78224
