         661
 CSIRO Nanostructure Databank - Neutral Graphene Oxide Data Set
C          5.97913        31.66555         0.75251
C          5.97008        33.02820         0.79822
C          8.41178        27.36057         0.48328
C          8.41577        28.76792         0.53761
C          7.20589        29.52393         0.61793
C          8.45168        31.64779         0.60965
C          7.21218        30.91835         0.65965
C          8.43883        33.06422         0.63257
C          7.19695        33.78603         0.73729
C          8.42305        35.92265         0.66234
C          7.20624        35.17837         0.73813
C          8.41464        37.32149         0.61571
C         10.89728        23.06486         0.24110
C         10.85588        24.48791         0.30278
C          9.64668        25.19937         0.35000
C         10.85770        27.33904         0.34125
C          9.61656        26.62188         0.38922
C         10.86433        28.74713         0.45402
C          9.67018        29.47212         0.54530
C         10.91809        31.60826         0.52772
C          9.69836        30.92049         0.57823
C         10.92776        33.07848         0.21428
C          9.65638        33.80757         0.54884
C         10.93341        35.94165         0.57673
C          9.67323        35.19911         0.59166
C         10.89868        37.39436         0.52307
C          9.61364        38.09671         0.53391
C         10.75639        40.30866         0.46360
C          9.55062        39.48282         0.43983
C         10.78479        41.73836         0.09926
C         13.27344        18.67988         0.30357
C         12.92531        20.01337         0.64199
C         11.99973        20.90084         0.11961
C         13.35947        23.06542         0.40291
C         12.08607        22.33708         0.32538
C         13.34008        24.49610         0.15416
C         12.10824        25.19979         0.21849
C         13.29533        27.31306        -0.10765
C         12.09170        26.61835         0.18212
C         13.25941        28.80923        -0.25650
C         12.19558        29.41948         0.66978
C         13.37745        31.60112         0.39511
C         12.17631        30.92171         0.50167
C         13.45196        33.05626         0.63550
C         12.14894        33.79917         0.73802
C         13.43787        35.97139         0.79634
C         12.14511        35.27288         0.64645
C         13.39783        37.44735         0.48672
C         12.07533        38.09312         0.34496
C         13.21562        40.26792        -0.26179
C         12.07264        39.56417         0.37470
C         13.23640        41.74293        -0.20105
C         11.95920        42.42296        -0.07815
C         13.25877        44.50975         0.30822
C         11.92719        43.93923        -0.19741
C         13.31652        46.01247         0.31832
C         15.82098        14.55306         0.35981
C         15.81675        15.97127         0.34942
C         14.62284        16.69697         0.40343
C         15.83009        18.85402         0.63344
C         14.55756        18.11433         0.50724
C         15.88074        20.30962         0.70296
C         14.76908        21.10741         0.98615
C         15.90387        23.23904         0.44249
C         14.61668        22.46025         0.56696
C         15.80198        24.55084        -0.27167
C         14.53851        25.21301        -0.18133
C         15.64196        27.35496        -0.92997
C         14.46740        26.62369        -0.39279
C         15.77837        28.79805        -0.69005
C         14.62731        29.43187        -0.02833
C         15.86416        31.65175        -0.17495
C         14.67053        30.90405         0.23933
C         15.83496        33.08684        -0.07963
C         14.68640        33.77714         0.34373
C         15.84920        35.97426        -0.10757
C         14.79501        35.23796         0.71931
C         15.76196        37.37578        -0.35368
C         14.60214        38.09208        -0.07305
C         15.73771        40.27391        -0.63023
C         14.48796        39.50357        -0.49176
C         15.68978        41.70152        -0.55115
C         14.45216        42.40245        -0.36775
C         15.76191        44.52538         0.03720
C         14.46123        43.91327        -0.44731
C         15.76469        45.84314         0.43978
C         14.53517        46.64073         0.48500
C         15.82865        48.69030         1.07250
C         14.62252        48.04014         0.75951
C         15.85402        50.07616         1.31700
C         18.27924        10.32884         0.70709
C         18.25342        11.66889         0.32479
C         17.05759        12.42605         0.38923
C         18.22383        14.56415        -0.20171
C         17.00004        13.81468         0.17542
C         18.26030        16.02246         0.03912
C         17.07325        16.70729         0.26964
C         18.33401        18.84300         0.48657
C         17.02821        18.14169         0.43092
C         18.34882        20.34419         0.37934
C         17.06528        21.04429         0.27888
C         18.24506        23.01134        -0.68483
C         17.05931        22.38244         0.00541
C         18.24986        24.51997        -0.67503
C         16.98433        25.18154        -0.69457
C         18.17486        27.37078        -1.25847
C         16.93414        26.58948        -1.14018
C         18.16204        28.74873        -1.28810
C         16.95971        29.48983        -0.90552
C         18.21290        31.64230        -0.84875
C         17.01668        30.94062        -0.64534
C         18.28060        33.06516        -0.47419
C         17.04060        33.83499        -0.32204
C         18.26543        35.97096        -0.73147
C         17.03114        35.24649        -0.42123
C         18.23715        37.42433        -0.94811
C         16.87149        38.07172        -1.13911
C         18.08094        40.33444        -1.32197
C         16.90170        39.57683        -0.92480
C         18.13931        41.76248        -0.96367
C         16.93605        42.42104        -0.59021
C         18.24518        44.42656        -0.08695
C         16.98928        43.79124        -0.19299
C         18.31690        45.71333         0.62110
C         17.01975        46.46690         0.88460
C         18.27896        48.55939         1.29002
C         17.08072        47.93020         1.09079
C         18.29859        49.96157         1.77219
C         17.05480        50.76889         1.65373
C         18.27889        52.95510         2.19512
C         17.07578        52.13529         1.80360
C         18.44236        54.16327         1.24412
C         20.74035         6.20675         1.98074
C         20.73949         7.52952         1.42534
C         19.51765         8.24145         1.24174
C         20.75266        10.26364         0.63324
C         19.49839         9.57369         0.81544
C         20.76752        11.64238         0.30233
C         19.51205        12.26414        -0.28152
C         20.76458        14.55253        -0.07276
C         19.52083        13.79901        -0.37022
C         20.79561        15.94365        -0.03491
C         19.53820        16.73493        -0.35351
C         20.77460        18.84586         0.19193
C         19.60177        18.15736         0.14912
C         20.83175        20.32721         0.30497
C         19.58795        21.07148         0.07276
C         20.78755        23.12147        -0.59435
C         19.56972        22.38960        -0.31073
C         20.71393        24.50517        -0.98617
C         19.45678        25.18498        -0.97724
C         20.69330        27.31330        -1.80467
C         19.41202        26.58512        -1.47610
C         20.70010        28.81978        -2.13179
C         19.35492        29.51270        -1.75899
C         20.67113        31.73833        -1.67534
C         19.35988        31.00223        -1.53176
C         20.71404        33.19620        -1.32795
C         19.54069        33.83781        -0.66340
C         20.76415        36.06867        -0.66900
C         19.46599        35.30606        -0.76805
C         20.70210        37.37033        -1.45037
C         19.39302        38.10462        -1.21838
C         20.66040        40.28948        -1.36641
C         19.42233        39.55633        -1.50781
C         20.61208        41.79800        -1.56344
C         19.36829        42.45606        -0.98399
C         20.69646        44.55304        -0.59856
C         19.43406        43.79872        -0.54465
C         20.62807        46.06704        -0.46665
C         19.60637        46.47253         0.60096
C         20.70350        48.80236         0.55923
C         19.58914        47.89326         1.06459
C         20.85366        50.05859         1.40776
C         19.60587        50.66705         1.95016
C         20.88317        52.87228         2.09932
C         19.59258        52.14700         2.24010
C         20.89121        54.32185         1.82177
C         19.69053        54.97724         1.53068
C         20.87939        57.10386         1.49908
C         19.69465        56.37959         1.39025
C         20.81955        58.61276         1.48566
C         23.14116         3.75796         3.46425
C         21.93707         4.34034         3.07945
C         23.21197         6.06368         1.83141
C         21.91600         5.54174         2.31708
C         23.23250         7.43794         1.19575
C         21.96979         8.19505         1.18831
C         23.21360        10.30425         0.82449
C         21.97832         9.59240         0.90553
C         23.21831        11.65392         0.48998
C         21.98125        12.32916         0.27541
C         23.28738        14.55892         0.35075
C         21.95580        13.80768         0.31861
C         23.26026        15.97679        -0.00437
C         22.03772        16.65131         0.03712
C         23.18003        18.81791        -0.57715
C         22.10523        18.14052         0.26243
C         23.28575        20.27454        -0.51677
C         22.11293        21.05426        -0.08956
C         23.22887        23.09553        -0.97537
C         22.02447        22.45023        -0.55304
C         23.18302        24.50865        -1.23388
C         21.94648        25.21633        -1.24784
C         23.17089        27.36617        -1.47176
C         21.95516        26.62656        -1.47643
C         23.14929        28.83764        -1.52797
C         21.95061        29.55215        -1.64473
C         23.15806        31.71234        -1.53794
C         21.95689        30.98793        -1.63121
C         23.19545        33.17392        -1.43962
C         22.00739        33.89995        -1.19310
C         23.20817        36.02578        -1.22757
C         22.01152        35.29634        -1.04805
C         23.19311        37.49881        -1.24056
C         21.96050        38.18371        -1.22633
C         23.14914        40.32795        -1.35405
C         21.91029        39.60766        -1.25752
C         23.09345        41.78650        -1.60078
C         21.88163        42.41405        -0.94592
C         23.11183        44.70080        -1.13885
C         21.86675        43.91847        -0.88404
C         23.25843        45.95499        -0.28618
C         21.96132        46.74538        -0.17703
C         23.28946        48.65638         0.61765
C         21.98035        48.01556         0.30279
C         23.32400        50.02369         1.21875
C         22.05582        50.73194         1.50233
C         23.33931        52.82511         1.85940
C         22.12840        52.13379         1.82103
C         23.38149        54.28458         1.90301
C         22.13311        55.01006         1.81098
C         23.36446        57.13140         1.55129
C         22.11935        56.42269         1.64553
C         23.36488        58.54907         1.31841
C         22.14913        59.28124         1.23794
C         23.40499        61.31915         0.78382
C         22.18031        60.64607         0.96778
C         24.38217         4.34865         3.17119
C         25.66998         6.24088         2.26125
C         24.46777         5.52920         2.40535
C         25.74840         7.54604         1.70849
C         24.55543         8.17105         0.98794
C         25.74354        10.35546         1.10084
C         24.44602         9.63871         1.39419
C         25.76323        11.67416         0.63662
C         24.51579        12.31481         0.07902
C         25.70857        14.49292         0.00417
C         24.53971        13.81284         0.20740
C         25.68906        15.91341        -0.26787
C         24.49679        16.61954        -0.34987
C         25.70197        18.78345        -0.98948
C         24.46131        18.01729        -0.84685
C         25.70012        20.18371        -1.04704
C         24.45137        20.94230        -0.91710
C         25.68162        23.03941        -1.61597
C         24.44052        22.36110        -1.07506
C         25.64557        24.52959        -1.35984
C         24.42588        25.23194        -1.36074
C         25.66724        27.40442        -1.69328
C         24.38796        26.66805        -1.40542
C         25.62308        28.87399        -1.35030
C         24.39420        29.56005        -1.40858
C         25.62639        31.70198        -1.44846
C         24.40489        30.99793        -1.46025
C         25.66532        33.13470        -1.91225
C         24.40804        33.89702        -1.54092
C         25.64265        36.06912        -1.76176
C         24.40124        35.30665        -1.47878
C         25.67292        37.52856        -1.48381
C         24.41134        38.23176        -1.32183
C         25.61939        40.43951        -1.49498
C         24.38212        39.66299        -1.38522
C         25.62612        41.79643        -1.74434
C         24.35574        42.55593        -1.90600
C         25.66198        44.91524        -1.85403
C         24.34585        44.07405        -1.74008
C         25.74721        46.07572        -0.86673
C         24.47259        46.79380        -0.68968
C         25.75975        48.91977         0.06011
C         24.48394        48.22058        -0.17130
C         25.80373        50.12298         0.76843
C         24.58719        50.78613         1.19965
C         25.83365        52.75240         2.01698
C         24.56868        52.09218         1.67811
C         25.90503        54.29868         2.00206
C         24.59544        54.99297         1.81226
C         25.82084        57.12223         1.41788
C         24.58065        56.41219         1.61141
C         25.81677        58.49734         1.18987
C         24.60464        59.23358         1.13354
C         24.60015        60.63003         0.87157
C         26.91273         8.29854         1.79633
C         28.18036        10.39095         1.25770
C         26.96352         9.68378         1.38353
C         28.20390        11.72852         0.82067
C         26.98173        12.35902         0.48327
C         28.19472        14.53575         0.29593
C         27.00206        13.72228        -0.17373
C         28.20236        15.99165        -0.05625
C         26.96065        16.55642        -0.66865
C         28.23127        18.76885        -0.90955
C         26.96574        18.03616        -1.00697
C         28.17682        20.16087        -0.97070
C         26.94826        20.89103        -1.06589
C         28.14224        23.03671        -1.03405
C         26.96560        22.33945        -1.17961
C         28.18244        24.50184        -1.26848
C         26.89216        25.23257        -0.91346
C         28.06676        27.43191        -1.04132
C         26.89484        26.71352        -1.17148
C         28.07730        28.88541        -1.10268
C         26.83817        29.58671        -1.19087
C         28.07230        31.74710        -1.05478
C         26.84857        31.02649        -1.21890
C         28.09748        33.19829        -1.15786
C         26.93433        33.85943        -1.52645
C         28.24257        36.03855        -1.62033
C         26.95357        35.30175        -1.80299
C         28.17467        37.53545        -1.49362
C         26.86180        38.21466        -1.42586
C         28.16087        40.31987        -1.60983
C         26.88031        39.69522        -1.09174
C         28.17323        41.79606        -1.90304
C         26.89084        42.56408        -1.95603
C         28.28254        44.81067        -1.76919
C         26.94732        44.07649        -1.95932
C         28.27715        46.19672        -1.19612
C         26.96632        46.89448        -1.03643
C         28.27911        49.14280        -0.42154
C         26.97109        48.36215        -0.57326
C         28.39396        50.05944         0.82644
C         27.06904        50.77093         1.08292
C         28.81403        53.12409         1.46888
C         27.01682        51.91286         1.83131
C         28.40630        54.42044         1.22495
C         27.15134        55.03018         1.59945
C         27.04737        56.38680         1.35026
C         29.45472        12.48630         0.74919
C         30.72530        14.66430         0.72891
C         29.47465        13.82766         0.52727
C         30.68118        16.08390         0.17703
C         29.48246        16.71083        -0.22041
C         30.71335        18.76119        -0.72801
C         29.48188        18.06160        -0.68089
C         30.74879        20.17026        -1.15382
C         29.44070        20.90999        -1.13042
C         30.67806        23.07064        -0.85894
C         29.40036        22.31029        -0.58026
C         30.61402        24.53289        -0.45439
C         29.46560        25.26527        -1.17945
C         30.43478        27.52766        -1.32362
C         29.33915        26.74955        -1.05562
C         30.53582        28.91944        -1.01554
C         29.28857        29.61248        -0.98752
C         30.53216        31.71193        -0.69084
C         29.29105        31.04261        -0.88379
C         30.52573        33.18112        -0.34081
C         29.33807        33.91673        -0.92516
C         30.60439        36.02614        -0.76941
C         29.41188        35.30247        -1.07104
C         30.57501        37.51513        -0.49176
C         29.37722        38.25104        -1.02351
C         30.63875        40.33454        -1.27561
C         29.41319        39.62017        -1.20156
C         30.57511        41.66946        -1.71109
C         29.45731        42.50143        -1.78490
C         30.63386        44.65371        -0.79851
C         29.58200        43.98550        -1.73985
C         30.80210        46.16967        -1.13000
C         29.46406        46.88179        -0.91556
C         30.72991        48.93823        -0.33432
C         29.51293        48.25264        -0.51080
C         30.74208        50.29477         0.01845
C         29.62410        50.96767         0.55705
C         29.75749        52.34892         0.73947
C         31.86630        16.83257         0.21133
C         33.03478        19.02320         0.11513
C         31.89215        18.18899        -0.18308
C         33.06786        20.39772        -0.07641
C         32.06302        20.93370        -1.10359
C         32.97714        23.22656         0.97951
C         31.83973        22.42511        -1.17180
C         32.98610        24.63590         0.51770
C         31.98055        25.19099        -0.29737
C         33.05535        27.41282        -0.13071
C         32.24306        26.49274        -0.78224
C         33.00168        28.83479        -0.40943
C         31.77896        29.55470        -0.77360
C         32.99315        31.71391        -0.61187
C         31.74244        30.99574        -0.63482
C         33.05028        33.16905        -0.52147
C         31.86235        33.88376        -0.54284
C         33.01092        36.08693        -0.33219
C         31.82389        35.34327        -0.54409
C         33.05260        37.51593        -0.41310
C         31.89956        38.20943        -0.73640
C         32.82623        40.35449         0.11095
C         31.99585        39.68906        -1.05796
C         32.99944        41.86441         0.06470
C         32.32351        42.67569        -0.78306
C         32.77944        44.67544         0.65843
C         32.14781        44.13938        -0.64032
C         32.81981        46.17117         0.47827
C         31.94056        46.80458        -0.32571
C         32.07403        48.28482        -0.54863
C         34.20313        21.12962         0.43707
C         35.43114        23.25393         0.99715
C         34.25592        22.49701         0.76267
C         35.39300        24.68217         1.09441
C         34.17940        25.35321         0.75494
C         35.32703        27.64408         1.05563
C         34.10564        26.82615         0.71737
C         35.31689        29.15366         0.74157
C         34.20065        29.55810        -0.27033
C         35.90454        32.00086        -0.04379
C         34.13252        30.90815        -0.70976
C         35.53018        33.23547         0.34587
C         34.40567        33.93272        -0.44714
C         35.36897        36.07534         0.66385
C         34.19665        35.33313         0.10352
C         35.39029        37.53434         0.60612
C         34.36600        38.27134        -0.22274
C         35.20518        40.34183         0.96088
C         34.14202        39.66708         0.31599
C         35.11148        41.72405         1.31228
C         34.02936        42.53161         0.88499
C         34.05264        43.92550         0.96864
C         36.56695        25.47852         1.28907
C         37.79503        27.61689         1.34927
C         36.58926        26.88210         1.22610
C         37.85593        29.02061         1.21493
C         36.72666        29.76375         0.69559
C         37.96982        31.85532         1.19594
C         36.86986        31.14343         0.61102
C         37.84037        33.22969         1.40385
C         36.48704        33.92308         1.31853
C         37.70490        36.11309         1.65191
C         36.70121        35.36317         0.79748
C         37.56469        37.48001         1.79931
C         36.45881        38.21829         1.21302
C         36.38584        39.62517         1.33610
C         39.05805        29.71864         1.56762
C         40.21654        31.87874         2.16491
C         39.12117        31.11347         1.62562
C         40.12133        33.23813         2.31539
C         38.92835        33.97259         1.96097
C         38.82183        35.36765         2.13611
O         19.92636        26.61937        -2.86342
O         34.31326        27.37158         2.08926
O         12.78565        33.35998         1.95735
O         31.80918        42.25300        -2.00633
O         20.08069        46.82612         1.93085
O         23.45134        42.12151        -2.96904
O         11.63621        40.08246         1.65764
O         23.51202        48.78325         2.05298
O         30.06594        20.56362        -2.40038
O         23.44034        18.24098        -1.88393
O         25.88750        53.53871         3.24915
O         18.93870        30.42386        -2.82314
O         27.91905        15.53961         1.32405
O         26.25620        35.68124        -3.04290
O         26.79365        48.03064        -1.98826
O         22.54826        14.26667         1.59100
O         13.49774        36.94644         1.89340
O         20.34883        52.48539         3.44935
O         26.87790        43.34163        -3.21305
O         28.16220        52.38053         2.47340
O         31.54440        26.91363        -1.91019
O         32.78314        20.68847        -2.42066
O         20.53123        32.76578        -2.71714
O         29.17672        44.69191        -2.94481
O         28.16371        40.76222        -2.98311
O         28.53715        36.87155        -2.78360
O         19.27895        33.30250         0.68358
O         24.15574        47.93083        -1.56696
O         34.32172        35.50972         1.56823
O         35.31495        31.45823        -1.19580
O         16.01670        26.87183        -2.26067
O         23.20722         6.22745         0.36140
O         28.96231        24.81039        -2.47428
O         18.45757        19.67042         1.69629
O         27.03505        16.95434        -2.05238
O         17.69107        45.68307         1.93424
O         18.78085        14.24976        -1.54946
O         21.72109        20.86776         1.34652
O         23.34883        44.75644        -2.56563
O         18.59241        39.98454        -2.67385
O         18.98085        49.96245         3.08750
O         13.71219        20.54124         1.69095
O         14.94015        29.89469         1.32897
O         32.03081        22.72070         1.58562
O         13.52342        39.72685        -1.59851
O         29.20476        22.08183         0.84791
H         29.12306        22.97117         1.26800
O         32.56098        48.56073        -1.86845
H         32.13842        47.90426        -2.47417
O         25.64203        22.87605        -3.07883
H         24.88787        23.40200        -3.42026
O         19.83784        59.07622         0.54653
H         20.17988        58.91638        -0.35658
O         26.97044        39.81635         0.36396
H         26.16373        39.41696         0.75318
O         23.53139        45.44013         1.05084
H         23.40891        46.16604         1.70108
O         32.78620        39.84832        -2.26378
H         32.22137        39.63693        -3.03657
O         12.52329        29.12515         2.04753
H         13.41400        29.51445         2.23340
O         25.68300        33.05137        -3.37707
H         25.78529        33.97906        -3.70678
O         11.07693        33.18043        -1.25048
H         10.31278        32.72256        -1.66110
O         19.48049        16.86162        -1.81173
H         19.29763        15.95184        -2.15983
O         14.33341        44.27180        -1.85848
H         15.04962        43.81710        -2.35058
O         20.89458        36.42098         0.73831
H         20.69677        35.62175         1.27205
O         34.78759        29.81768         1.93134
H         34.24499        29.14335         2.41177
O         26.86826        25.08223         0.56495
H         26.06294        25.53143         0.90002
O         22.54644        18.28704         1.64836
H         22.35096        19.21981         1.92079
O         28.68626        49.22319         1.96528
H         28.70240        49.79672         2.76050
O         30.41871        37.61242         0.98771
H         30.80994        38.47957         1.26310
O         25.59784        45.58785        -3.13140
H         25.71791        44.90366        -3.82750
O         20.11342        46.57676        -1.72187
H         20.13531        47.56382        -1.68035
O         31.87896        13.97904         0.23190
H         31.78054        13.86917        -0.73591
O         32.76568        19.27822        -2.70835
H         31.92316        19.17181        -3.21708
O         36.01531        33.91582         2.67680
H         35.15379        34.39828         2.69337
O         20.59780        42.05370        -2.98384
H         19.85206        41.53609        -3.36420
O         24.25841         9.63680         2.83967
H         24.20876        10.56749         3.14349
O         34.85077        34.11429        -1.80863
H         35.09941        33.22724        -2.15387
O         35.00123        38.43821        -1.53627
H         34.39631        39.01939        -2.06507
O         30.30909        33.22280         1.12302
H         31.10668        32.84413         1.55092
O         37.26072        35.27955        -0.53375
H         38.19493        34.99380        -0.45901
O         20.70315        37.00865        -2.85687
H         20.69601        37.83106        -3.39027
O         20.83714        28.91239        -3.56253
H         20.20487        28.27156        -3.95890
O         32.92959        23.11472        -1.62248
H         33.57469        22.47086        -1.98750
O         12.87202        29.12938        -1.61822
H         13.43395        28.61008        -2.23191
O         31.96839        44.37897         1.85431
H         32.46133        44.72782         2.62663
O         16.26218        23.62488         1.83265
H         16.30754        22.80074         2.36506
O         11.64853        44.34872        -1.53587
H         12.48234        44.26780        -2.05656
O         18.01190        53.49173         3.50675
H         18.79003        53.26516         4.07176
O         31.14446        46.35351        -2.52358
H         30.40416        45.96823        -3.05974
O         18.55150        53.63990        -0.09092
H         18.63710        54.39260        -0.71125
O         19.52783        11.81130        -1.67119
H         19.39891        10.83950        -1.66940
O         18.04879        22.66613        -2.11018
H         18.70393        23.17512        -2.63469
O         32.92816        44.70582        -1.71231
H         32.71664        44.20882        -2.53172
O         24.60661        12.07804        -1.38156
H         24.58438        11.10585        -1.52257
O         21.95794        41.96365         0.43852
H         21.29623        42.45964         0.96578
O         31.97383        40.08321         1.28609
H         32.43190        40.44397         2.07553
O         16.55582        37.86744        -2.54996
H         17.17360        38.43803        -3.06346
O         25.79477        27.34637        -3.16738
H         26.60353        27.84395        -3.41497
O         20.22236        49.27555        -0.75096
H         20.92285        49.82953        -1.15773
O         28.31779        50.05457        -1.54805
H         27.97992        49.55244        -2.32606
O         30.13315        24.55439         0.93638
H         30.76481        23.99014         1.46288
O         29.89677        44.53049         0.43175
H         30.45027        44.81001         1.20034
O         27.17677        13.50062        -1.59989
H         26.37637        13.01016        -1.90677
O         15.34397        35.21924         2.07494
H         14.91411        35.96327         2.56184
O         13.35446        44.08771         1.69482
H         14.17154        44.47200         2.07854
O         24.83326         8.14763        -0.43057
H         24.59239         7.24624        -0.74525
H          5.03372        31.10474         0.79410
H          5.01897        33.57515         0.87514
H          7.45189        26.82358         0.51678
H          6.24496        28.98820         0.64575
H          6.25367        35.72685         0.79025
H          7.45057        37.85113         0.64954
H          9.94597        22.51692         0.16567
H          8.69733        24.64338         0.37636
H          8.57209        39.97334         0.32540
H          9.83287        42.29156         0.09389
H         12.50907        18.03460        -0.15745
H         11.18282        20.52909        -0.51723
H         11.09954        44.33115         0.44817
H         12.38332        46.58913         0.40468
H         14.87611        14.02024         0.54431
H         13.67380        16.14036         0.37184
H         13.69182        48.62682         0.75936
H         14.91742        50.64873         1.24240
H         17.34138         9.84715         1.02454
H         16.14047        11.91567         0.72301
H         16.12873        52.68827         1.70144
H         17.53320        54.82066         1.31687
H         19.77442         5.76196         2.26462
H         18.56785         7.72606         1.44813
H         18.75233        56.91652         1.20585
H         20.45247        58.94043         2.50015
H         23.12227         2.83594         4.06226
H         20.98427         3.88401         3.38408
H         23.40357        62.39793         0.57474
H         21.23400        61.20067         0.89822
H         25.30284         3.90752         3.57959
H         26.57761         5.82318         2.72615
H         26.77073        59.02122         1.02972
H         25.55750        61.15225         0.73264
H         27.82455         7.83952         2.20974
H         29.12715         9.88178         1.49204
H         29.04514        55.02487         0.56182
H         27.95308        56.93767         1.05417
H         30.39505        11.95765         0.96786
H         30.87612        14.75784         1.84149
H         31.69781        50.83782        -0.04413
H         30.59579        52.85536         0.23488
H         32.78279        16.36260         0.59649
H         33.84856        18.55612         0.69252
H         33.60059        46.75621         0.99299
H         32.81112        48.71973         0.17768
H         35.11260        20.52943         0.61772
H         36.40804        22.74636         1.01792
H         35.95611        42.19335         1.83770
H         34.88246        44.43284         1.48339
H         37.52450        24.95791         1.44555
H         38.71580        27.07144         1.60691
H         38.32172        38.04735         2.36309
H         37.19336        40.16634         1.85055
H         39.91520        29.12427         1.92004
H         41.13039        31.35374         2.47999
H         40.96799        33.79838         2.73984
H         39.64545        35.90871         2.62772
