         349
 CSIRO Nanostructure Databank - Neutral Graphene Oxide Data Set
C          1.48280         3.96845        -1.77122
C          0.38353         4.81589        -1.89263
C          1.18831         6.17746        -0.06030
C          0.25253         5.95362        -1.08522
C          1.22432         7.44806         0.71505
C          0.05665         7.96539         1.25648
C          1.28490         9.91895         1.97693
C          0.12994         9.15503         2.00893
C          1.24291        12.15392         2.09211
C         -0.01555        12.65924         1.88619
C          0.94237        14.78403         1.23610
C         -0.15234        13.96787         1.33006
C          0.74093        16.23081         1.22573
C         -0.02996        17.11802         0.52199
C          1.17296        19.30911         1.04862
C          0.06974        18.55821         0.69477
C          1.14800        20.83472         1.20552
C         -0.06657        21.52502         0.64885
C          1.17820        23.59277         0.17450
C         -0.03776        22.81083         0.22549
C          1.18417        24.98580        -0.14172
C         -0.02819        25.72455        -0.32096
C          1.20690        27.78038        -0.75158
C         -0.01714        27.07093        -0.60586
C          1.22905        29.17839        -1.04418
C          3.70871         3.41483        -0.91452
C          2.46961         4.16038        -0.76571
C          3.95478         6.25521         0.89095
C          2.17586         5.20325         0.15419
C          3.70314         7.61073         0.57617
C          2.43977         8.22945         0.77098
C          3.54026        10.53135         0.94885
C          2.43303         9.62397         1.17000
C          3.54686        11.98676         1.14701
C          2.44648        12.74537         1.55197
C          3.45472        14.96590         0.71291
C          2.37690        14.27933         1.59737
C          3.60571        16.46054         0.97195
C          2.61115        17.28430         1.42689
C          3.65231        19.39500         0.90279
C          2.49049        18.70015         1.16830
C          3.67338        20.83773         0.81558
C          2.42729        21.53245         0.76167
C          3.64485        23.63415         0.30142
C          2.41433        22.91641         0.42208
C          3.66883        24.99716        -0.06547
C          2.42707        25.68319        -0.27383
C          3.67003        27.77035        -0.77143
C          2.43516        27.07535        -0.59741
C          3.67114        29.17143        -1.06512
C          2.41549        29.85386        -1.18634
C          6.14579         3.06944        -1.04087
C          4.99113         3.57457        -0.37671
C          6.29151         6.42271         0.22467
C          5.17465         5.64955         0.65853
C          6.12327         7.77879        -0.02889
C          4.81736         8.41050         0.10240
C          6.04373        10.67184         0.26359
C          4.71953         9.97827         0.24399
C          6.04325        12.04685         0.51419
C          4.70080        12.74674         0.44141
C          6.01385        14.92501         0.64149
C          4.78263        14.23590         0.72987
C          6.08339        16.36492         0.54191
C          4.81326        17.11974         0.45538
C          6.16036        19.27860         0.72238
C          4.84598        18.62540         0.51709
C          6.17454        20.76588         0.93704
C          4.90271        21.51006         0.80731
C          6.21245        23.71225         0.48778
C          4.89588        22.97081         0.69536
C          6.16757        25.02722        -0.17140
C          4.91763        25.69016        -0.28836
C          6.13302        27.74484        -0.91560
C          4.90709        27.06742        -0.67102
C          6.12889        29.16166        -1.15138
C          4.89272        29.85058        -1.21589
C          8.61215         3.31920        -1.52200
C          7.44881         3.56123        -0.79568
C          8.56166         6.37309        -0.75837
C          7.54005         5.76427        -0.09376
C          8.50922         7.85610        -0.96853
C          7.25068         8.58348        -0.53432
C          8.48402        10.68154         0.01915
C          7.26320        10.00134        -0.07735
C          8.49963        12.06678         0.33876
C          7.26781        12.77258         0.50747
C          8.50349        14.90573         0.44186
C          7.27044        14.20514         0.56687
C          8.51986        16.32903         0.36111
C          7.31208        17.04927         0.41446
C          8.64037        19.28305         0.41084
C          7.34579        18.55184         0.11373
C          8.68833        20.63859         0.46628
C          7.48365        21.46694         0.73935
C          8.67595        23.54854        -0.19775
C          7.50544        22.94242         0.47454
C          8.61381        24.86563        -0.58415
C          7.37736        25.63322        -0.57391
C          8.56443        27.70999        -1.26403
C          7.36751        27.02220        -0.94848
C          8.58482        29.13901        -1.29994
C          7.36469        29.84285        -1.26358
C         11.03861         3.51688        -1.61133
C          9.81848         4.08993        -1.31161
C         11.05391         6.38749        -1.12083
C          9.76411         5.60248        -1.16855
C         11.16533         7.93095        -1.09692
C          9.80327         8.64819        -0.96577
C         11.03261        10.66065         0.08294
C          9.76758        10.04415        -0.40318
C         11.00605        12.03512         0.39239
C          9.74848        12.77726         0.37126
C         11.01121        14.90179         0.38998
C          9.74773        14.17380         0.39247
C         11.03133        16.26258         0.25380
C          9.78606        17.06248        -0.02951
C         11.09989        19.20518         0.06140
C          9.89699        18.46789         0.61376
C         11.11240        20.54429        -0.12036
C          9.99742        21.41907         0.39347
C         11.17166        23.38508        -0.72072
C          9.84216        22.64394        -0.57182
C         11.16070        24.89123        -0.69414
C          9.83585        25.49284        -1.15260
C         11.09245        27.73079        -1.79037
C          9.80587        26.95352        -1.50495
C         11.06654        29.17462        -1.34476
C          9.83770        29.83593        -1.26715
C         13.61363         3.58557        -1.54810
C         12.30534         4.13696        -1.17297
C         13.52209         6.31545        -0.41906
C         12.25283         5.58403        -0.72032
C         13.45821         7.77656        -0.15838
C         12.28526         8.49334        -0.22067
C         13.42449        10.57711         0.57255
C         12.24570         9.91429         0.14003
C         13.41753        11.97230         0.79454
C         12.21820        12.71854         0.69887
C         13.46808        14.84860         0.66432
C         12.26030        14.16880         0.64557
C         13.54756        16.20238        -0.00465
C         12.32781        17.02201         0.42983
C         13.61592        19.07804        -0.40572
C         12.30420        18.38061        -0.22890
C         13.56670        20.57789        -0.18026
C         12.29533        21.17503        -0.83853
C         13.64434        23.25036        -1.35685
C         12.32523        22.68876        -0.82980
C         13.67343        24.79010        -1.48009
C         12.36888        25.56476        -1.33978
C         13.63627        27.76223        -1.66665
C         12.36343        27.02849        -1.33459
C         13.55239        29.16359        -1.06404
C         12.28535        29.82974        -1.11870
C         16.06842         3.76543        -1.81152
C         14.80674         4.28861        -1.41320
C         16.02710         6.51811        -0.94953
C         14.81286         5.62611        -0.76052
C         15.98003         7.56427         0.13303
C         14.75756         8.42478         0.14465
C         15.93030        10.57767         1.10576
C         14.73362         9.87130         0.56661
C         15.96574        12.00626         1.01767
C         14.65769        12.68817         1.15385
C         16.04139        14.92705         1.18431
C         14.68344        14.20072         1.15034
C         16.01385        16.31715         0.57926
C         14.83114        16.97690         0.25184
C         16.06347        19.09403         0.03889
C         14.87153        18.37142        -0.04481
C         16.15330        20.50184        -0.51965
C         14.86094        21.29365        -0.46271
C         16.19027        23.32381        -0.97975
C         14.87016        22.63035        -0.68764
C         16.08729        24.83906        -0.79009
C         14.95705        25.50558        -1.23516
C         16.06333        27.72277        -0.69275
C         14.92288        26.99087        -1.32688
C         15.83971        29.05330        -0.00572
C         14.62026        29.79053        -0.47413
C         18.57016         3.78867        -1.73475
C         17.29888         4.42193        -1.51219
C         18.50366         6.28740        -0.44894
C         17.30065         5.70968        -0.92239
C         18.45814         7.49010         0.32886
C         17.13869         7.86169         0.78026
C         18.40572        10.48090         1.05708
C         17.13412         9.94250         1.38380
C         18.39704        11.90262         0.69595
C         17.16139        12.67515         0.86591
C         18.50261        14.85080         0.76220
C         17.18612        14.13779         0.48789
C         18.49124        16.27603         0.78759
C         17.25222        17.00389         0.59164
C         18.47463        19.13857         0.60610
C         17.26944        18.41262         0.38714
C         18.37263        20.63024         0.82365
C         17.29707        21.32518         0.02296
C         18.48513        23.45945         0.22345
C         17.33602        22.67051        -0.21156
C         18.45644        24.87475         0.17685
C         17.24823        25.57407        -0.29410
C         18.48706        27.73872        -0.07989
C         17.20993        26.94715        -0.19471
C         18.32290        29.23114         0.16705
C         17.10398        29.86074         0.05281
C         19.75224         4.40319        -1.38682
C         20.92539         6.37225        -0.32753
C         19.75705         5.66884        -0.72228
C         20.85476         7.63440         0.24344
C         19.61950         8.26486         0.59437
C         20.81608        10.45563         1.05282
C         19.59390         9.70626         0.93692
C         20.87726        11.82907         1.11759
C         19.75579        12.66559         0.71225
C         20.90989        14.88332         1.06042
C         19.71476        14.15078         0.87648
C         20.90827        16.26946         1.06875
C         19.70760        16.99990         0.90876
C         20.86003        19.22661         1.08190
C         19.68067        18.45896         0.88043
C         20.86276        20.62124         0.98959
C         19.68972        21.34994         0.78131
C         20.77537        23.54998         1.09708
C         19.65805        22.78741         0.69297
C         20.70957        24.93448         1.12020
C         19.56688        25.61344         0.66969
C         20.76883        27.88663         0.84571
C         19.47174        27.11335         0.89723
C         20.73677        29.24710         0.65726
C         19.52934        29.94257         0.40678
O          5.23212         4.26372         0.83841
O         10.42762         6.06803        -2.39717
O         14.48312        13.44586         2.39089
O          1.36132        10.99271         2.86724
O          4.68716        17.94329        -0.78899
O          6.27961        19.79947         2.06766
O         14.32352         5.62575         0.61068
O          9.67168        25.88007        -2.53688
O         17.07958         8.66010         1.92820
O          9.75609         9.79073        -1.86839
O         15.99980        27.61173        -2.14372
O          7.62726         4.43077         0.30564
O         15.01965         9.50584        -0.87508
O         16.42917        15.12813         2.51206
O         19.12663        12.22922        -0.53735
O         12.89980        25.17269        -2.65608
O         12.05373         4.54749         0.26374
O          7.79475        22.42337         1.82918
O          7.55345         8.33187        -1.95950
O          2.93960         5.39521         1.32710
O          5.58319        23.69929         1.79761
O          1.56530        16.79825         2.21267
O         12.89819        18.51473        -1.55351
O          4.45151         9.30485        -1.01383
O         13.81121        22.78189        -2.69216
O          2.94012        14.91890        -0.65220
H          3.38706        14.17611        -1.12947
O         11.18180        27.79274        -3.23947
H         10.92302        26.90323        -3.57799
O         16.44372        20.31474        -1.94080
H         16.47631        21.22186        -2.34692
O         11.67363         8.23831        -2.42019
H         11.23767         9.07508        -2.71079
O         18.91723        27.28371         2.23504
H         19.51531        26.83901         2.87114
O         10.38651        21.90061         1.69772
H          9.55621        22.19730         2.14984
O         13.48904        15.92235        -1.42157
H         13.37131        16.78916        -1.88733
O          9.71412        17.24763        -1.46939
H          8.89488        17.76379        -1.67332
O         10.01596        18.27086         2.04208
H         10.35083        19.10333         2.43803
O          1.10200        21.06997         2.66235
H          1.89906        20.65162         3.05292
O          2.67645        14.63568         2.96358
H          1.95771        14.29891         3.53793
O         19.08904        27.62075        -1.40003
H         18.38477        27.77737        -2.06703
O          4.34777        12.67278        -1.00041
H          4.35772        11.72885        -1.27581
O         17.92248        20.75581         2.23662
H         18.56897        20.26911         2.79232
O         13.35508        20.74831         1.25635
H         14.12111        20.36045         1.73014
O         15.53212        28.66370         1.38708
H         15.58953        29.46716         1.94593
O         16.42572        23.08858        -2.40247
H         15.50928        23.06472        -2.82507
O          9.51059        22.10636        -1.87792
H         10.31348        21.63968        -2.22615
O         12.16507        20.83538        -2.22970
H         12.82467        21.42049        -2.71889
O         12.48874        17.29908         1.84886
H         12.45949        16.44709         2.33455
O          7.21000        18.65713        -1.33967
H          6.32194        18.27552        -1.56908
O         11.26543        25.27443         0.71966
H         11.20015        24.46534         1.27266
O         16.95560        14.18284        -0.94090
H         17.63674        13.60968        -1.36182
O         15.94320         7.14789        -2.25809
H         15.64659         8.07940        -2.13816
O         13.67855        27.96591        -3.10262
H         13.61862        27.07887        -3.52281
H          1.61330         3.14937        -2.49328
H         -0.35298         4.63024        -2.68643
H         -0.55462         6.67621        -1.26791
H         -0.88296         7.39986         1.20211
H         -0.71259         9.47735         2.63384
H         -0.89800        12.11849         2.25017
H         -1.15824        14.37849         1.15945
H         -0.78192        16.74847        -0.18971
H         -0.84021        19.10634         0.40069
H         -1.03467        21.00637         0.69313
H         -0.97789        23.27464        -0.10566
H         -0.99477        25.21486        -0.21288
H         -0.96545        27.61465        -0.72552
H          0.27270        29.71081        -1.15091
H          3.69465         2.75624        -1.80043
H          2.41848        30.93099        -1.40738
H          5.99759         2.43571        -1.92743
H          4.89059        30.93391        -1.40687
H          8.65337         2.47065        -2.22179
H          7.37174        30.93998        -1.33933
H         11.07042         2.46717        -1.94271
H          9.82233        30.91909        -1.07055
H         13.62410         2.61660        -2.07137
H         12.25888        30.90064        -0.85750
H         16.10293         2.76419        -2.26804
H         14.46545        30.79713        -0.04871
H         18.58835         2.79818        -2.21274
H         17.03617        30.95422         0.17514
H         20.71153         3.91027        -1.60243
H         21.91145         5.92844        -0.52888
H         21.80145         8.15431         0.44459
H         21.74755         9.90290         1.24358
H         21.80310        12.30630         1.47029
H         21.86531        14.34980         1.16170
H         21.86777        16.79259         1.17787
H         21.81631        18.72087         1.27011
H         21.82935        21.14014         1.05707
H         21.68229        23.05286         1.46561
H         21.56880        25.49722         1.51022
H         21.72944        27.39671         1.06133
H         21.67076        29.82462         0.73012
H         19.52010        31.04248         0.41786
