         204
 CSIRO Nanostructure Databank - Neutral Graphene Oxide Data Set
C        -11.03028         0.72109        -0.74240
C         -9.81185         1.47057        -0.48810
C         -8.60367         0.77202        -0.35502
C         -7.37484         1.45221        -0.06408
C         -6.16675         0.74678         0.13971
C         -4.94823         1.44914         0.34496
C         -3.70413         0.75287         0.39032
C         -2.48795         1.43984         0.57598
C         -1.22574         0.73673         0.70428
C         -0.04017         1.45593         0.89405
C          1.23458         0.76205         1.17391
C          2.48913         1.43947         0.79009
C          3.64123         0.69364         0.52986
C          4.78866         1.38084        -0.16527
C          6.10820         0.67248        -0.03038
C          7.30282         1.38079        -0.28092
C          8.53191         0.66903        -0.42331
C          9.74526         1.38334        -0.71967
C         10.96097         0.63114        -0.88274
C         -9.80308         2.89120        -0.42893
C         -8.61734         3.60418        -0.22456
C         -7.38217         2.88800         0.02536
C         -6.20362         3.57587         0.35906
C         -4.96024         2.88370         0.48487
C         -3.73045         3.57228         0.67517
C         -2.50807         2.86976         0.69530
C         -1.25052         3.58560         0.73872
C         -0.02828         2.88393         0.80295
C          1.23291         3.59085         0.76935
C          2.47162         2.86691         0.67329
C          3.70735         3.55531         0.43988
C          4.86873         2.86016         0.10545
C          6.09895         3.55068        -0.16431
C          7.29396         2.82089        -0.39713
C          8.51303         3.51688        -0.69152
C          9.71914         2.77248        -0.85788
C         -8.59155         5.03635        -0.31011
C         -7.43910         5.76138        -0.04606
C         -6.25521         5.04867         0.48862
C         -4.97506         5.81593         0.70805
C         -3.69447         5.05146         1.03451
C         -2.46807         5.72639         0.49006
C         -1.24717         5.00683         0.55676
C         -0.00295         5.69722         0.45134
C          1.21225         4.99568         0.63561
C          2.45027         5.78259         0.66347
C          3.76784         5.02074         0.58877
C          4.96041         5.73469         0.09038
C          6.12226         4.98198        -0.22226
C          7.32736         5.67105        -0.58159
C          8.50516         4.92324        -0.80901
C         -7.37327         7.18089        -0.11372
C         -6.17584         7.89000         0.02910
C         -4.91447         7.21976         0.22703
C         -3.69629         7.87215        -0.00583
C         -2.47713         7.05479         0.03754
C         -1.22289         7.57423        -0.38136
C          0.00773         7.07240         0.05375
C          1.23337         7.87538         0.04606
C          2.42463         7.21600         0.30878
C          3.73327         7.90584         0.33431
C          4.95599         7.13256         0.00584
C          6.13321         7.81669        -0.43460
C          7.29608         7.08861        -0.69613
C         -6.15245         9.32213        -0.09216
C         -4.96944         9.99911        -0.07931
C         -3.68665         9.33308        -0.10666
C         -2.56515        10.17891        -0.06071
C         -1.23273         9.75209        -0.36701
C          0.00207        10.15882         0.07268
C          1.22294         9.35275        -0.07702
C          2.41686        10.03410        -0.16389
C          3.72545         9.39566         0.02515
C          4.94906         9.97728        -0.55859
C          6.07966         9.24649        -0.70286
C        -11.04985        -0.63982        -0.86155
C         -9.83794        -1.42651        -0.80534
C         -8.57941        -0.66278        -0.68986
C         -7.31706        -1.42198        -0.44607
C         -6.21732        -0.75145         0.34214
C         -4.91805        -1.47522         0.08029
C         -3.67451        -0.68237         0.04489
C         -2.37993        -1.43971         0.17885
C         -1.17843        -0.71137         0.63991
C         -0.03013        -1.42313         0.90245
C          1.24075        -0.75728         1.23682
C          2.50846        -1.47635         0.95994
C          3.67870        -0.73840         0.65429
C          4.90412        -1.45294         0.40248
C          6.11913        -0.73704         0.11834
C          7.34122        -1.45218        -0.04334
C          8.54577        -0.74640        -0.32069
C          9.77320        -1.47317        -0.50892
C         10.97256        -0.73481        -0.78223
C         -9.81052        -2.80488        -0.83353
C         -8.58988        -3.57234        -0.66395
C         -7.36862        -2.89392        -0.39598
C         -6.16020        -3.58681        -0.21699
C         -4.91528        -2.83229        -0.09536
C         -3.61950        -3.56832        -0.34809
C         -2.45487        -2.88825         0.31346
C         -1.15125        -3.60487         0.16582
C         -0.04159        -2.90103         0.90809
C          1.25588        -3.64959         1.00469
C          2.52244        -2.89371         0.90954
C          3.71538        -3.60065         0.67529
C          4.93479        -2.86926         0.48051
C          6.16591        -3.57590         0.31715
C          7.35276        -2.88276         0.05144
C          8.59037        -3.60339        -0.18976
C          9.76927        -2.87665        -0.45071
C         -8.56967        -4.97904        -0.69992
C         -7.36378        -5.70350        -0.52601
C         -6.13913        -5.00127        -0.30502
C         -4.89891        -5.72839        -0.15588
C         -3.67036        -5.04458        -0.02846
C         -2.47682        -5.76574         0.25648
C         -1.22531        -5.08182         0.43077
C         -0.00510        -5.78167         0.55378
C          1.23958        -5.07980         0.64167
C          2.45903        -5.76502         0.52127
C          3.71146        -5.05005         0.56028
C          4.90741        -5.75970         0.42248
C          6.22109        -5.05084         0.62980
C          7.39956        -5.75286        -0.00602
C          8.56313        -5.02296        -0.25881
C         -7.33142        -7.13251        -0.59630
C         -6.14666        -7.84506        -0.43580
C         -4.91237        -7.15113        -0.18179
C         -3.69744        -7.87365         0.00886
C         -2.51244        -7.19132         0.31656
C         -1.28673        -7.97669         0.72926
C          0.00905        -7.21898         0.53230
C          1.20882        -7.90155         0.48028
C          2.45433        -7.19219         0.40262
C          3.67504        -7.88710         0.23730
C          4.90000        -7.17064         0.21502
C          6.13284        -7.86514        -0.05903
C          7.33217        -7.15045        -0.19793
C         -6.10927        -9.28795        -0.54766
C         -4.93925        -9.97998        -0.45993
C         -3.68174        -9.31793        -0.19560
C         -2.48120        -9.99885        -0.23553
C         -1.23251        -9.36366         0.11067
C         -0.04207       -10.02465         0.06359
C          1.20584        -9.40486         0.64167
C          2.48696       -10.04387         0.18347
C          3.65770        -9.33512         0.06553
C          4.91708        -9.98833        -0.22718
C          6.08625        -9.28681        -0.28404
O          3.26726         5.52091         1.86844
O         -0.75164        -3.50693        -1.25480
H         -1.58385        -3.65520        -1.77993
O          3.90940         8.89070         1.40373
O         -3.39375        -3.49875        -1.82039
H         -3.33949        -2.52538        -2.01566
O          4.45371         1.27695        -1.61555
H          5.20109         1.67732        -2.11007
O         -2.86262        -0.92764        -1.17888
O         -7.58333        -0.90449        -1.77877
O         -1.21753         8.65491        -1.25663
O         -3.52853         5.08235         2.48485
H         -4.43924         5.08690         2.86437
O          6.46963        -5.13001         2.08687
H          7.31633        -4.66573         2.26052
O         -5.92525         5.61555         1.81955
O         -6.57169        -0.95988         1.74848
H         -5.87600        -0.54841         2.30314
O          1.11072        -9.64403         2.10688
H          1.92292        -9.27127         2.51310
O         -1.39905        -8.19275         2.17363
H         -0.62233        -8.75013         2.43043
O          1.25109         0.05174         2.45980
O          0.38710        -3.42814         2.19290
H         11.91219        -1.29034        -0.91848
H         11.89057         1.17732        -1.10038
H         10.64961         3.31284        -1.08814
H          9.43876         5.44862        -1.05932
H          8.20739         7.61864        -1.01129
H          6.98502         9.71658        -1.11580
H          4.92447        11.03095        -0.87559
H          2.39983        11.12243        -0.33066
H          0.09405        11.09295         0.64680
H         -2.73867        11.23703         0.19275
H         -4.97245        11.09814        -0.12903
H         -7.10607         9.86436        -0.16648
H         -8.29187         7.73955        -0.34990
H         -9.51030         5.56378        -0.60834
H        -10.74125         3.44076        -0.59751
H        -11.97174         1.28568        -0.81532
H        -12.00599        -1.16202        -1.01583
H        -10.75541        -3.35887        -0.94597
H         -9.50313        -5.53180        -0.88479
H         -8.26864        -7.67644        -0.78905
H         -7.05283        -9.81932        -0.74182
H         -4.93384       -11.07300        -0.58547
H         -2.46774       -11.06552        -0.50845
H          0.00159       -11.06800        -0.28632
H          2.50162       -11.13801         0.06081
H          4.91455       -11.07595        -0.39097
H          7.02958        -9.80841        -0.50469
H          8.23973        -7.68783        -0.51540
H          9.46906        -5.55231        -0.59331
H         10.70668        -3.42474        -0.63005
