         276
 CSIRO Nanostructure Databank - Neutral Graphene Oxide Data Set
C        -11.40668         0.78311         0.50798
C        -10.18246         1.59480         0.70029
C         -8.88603         0.81282         0.95333
C         -7.69155         1.35928         0.17631
C         -6.38423         0.74559         0.69373
C         -5.12154         1.27538         0.06042
C         -3.81993         0.67099         0.50869
C         -2.56532         1.14815        -0.19047
C         -1.26693         0.48813         0.18290
C          0.04034         1.23998         0.08881
C          1.32374         0.54616         0.43813
C          2.62457         1.05987        -0.16425
C          3.83523         0.53591         0.62864
C          5.10269         1.32257         0.76291
C          6.41064         0.58234         0.68919
C          7.68421         1.32962         0.40042
C          8.96911         0.69906         0.88235
C         10.24141         1.45980         0.67369
C         11.45390         0.66839         0.35831
C        -10.07226         2.92611         0.10161
C         -8.86389         3.63437         0.07595
C         -7.56699         2.88962         0.36020
C         -6.42101         3.42776        -0.49556
C         -5.14684         2.61910        -0.60663
C         -3.86365         3.33176        -0.97486
C         -2.55311         2.55029        -0.79648
C         -1.23891         3.28033        -0.90561
C          0.07438         2.55206        -0.65428
C          1.37540         3.29390        -0.71170
C          2.67544         2.57409        -0.40043
C          3.92283         3.37003        -0.18772
C          5.12876         2.80035         0.48710
C          6.40437         3.56669         0.43413
C          7.67282         2.82714         0.05978
C          8.96277         3.58486         0.30915
C         10.16885         2.89760         0.35831
C         -8.79477         5.02621        -0.12415
C         -7.53991         5.72248        -0.22690
C         -6.38270         4.90343        -0.69689
C         -5.11435         5.61501        -1.07512
C         -3.82960         4.82089        -1.21894
C         -2.54998         5.53087        -0.70006
C         -1.22485         4.79717        -0.97876
C          0.04702         5.54436        -0.65931
C          1.30945         4.76724        -0.36661
C          2.56748         5.51841        -0.04350
C          3.87823         4.86166        -0.36197
C          5.16873         5.61343        -0.49776
C          6.49400         4.85470        -0.36388
C          7.67237         5.70815         0.08334
C          8.90107         4.99958         0.25345
C         -7.39916         7.07145        -0.00407
C         -6.02991         7.70696         0.09162
C         -5.04289         7.08954        -0.88230
C         -3.72474         7.79350        -1.12837
C         -2.44860         7.01113        -1.12214
C         -1.07183         7.74969        -1.04840
C         -0.08771         6.99335        -0.10201
C          1.23808         7.75613         0.05058
C          2.53896         7.01678         0.08506
C          3.80877         7.79495        -0.10023
C          5.12460         7.10572        -0.26628
C          6.29459         7.79972         0.42968
C          7.60267         7.07885         0.22421
C         -5.99767         9.21422         0.04070
C         -4.92474         9.90271        -0.37110
C         -3.71445         9.31977        -1.06972
C         -2.39461         9.85874        -0.54005
C         -1.21599         9.21175        -0.61034
C          0.08266        10.00716        -0.59517
C          1.32309         9.23264        -0.17916
C          2.49205         9.88886         0.01892
C          3.77721         9.21564         0.47819
C          5.06133         9.92369         0.08529
C          6.23730         9.27351         0.08017
C        -11.43034        -0.56628         0.52571
C        -10.26726        -1.41946         0.87690
C         -8.93088        -0.65424         1.15730
C         -7.65215        -1.41686         0.97579
C         -6.39829        -0.62501         1.29633
C         -5.11264        -1.35707         1.70676
C         -3.82168        -0.62154         1.28096
C         -2.52655        -1.40516         1.46349
C         -1.24010        -0.75027         1.05062
C         -0.01646        -1.61152         0.83530
C          1.30209        -0.95166         0.63772
C          2.59621        -1.69462         0.93768
C          3.90138        -0.96886         0.75569
C          5.16018        -1.58335         1.30545
C          6.44660        -0.81530         1.25877
C          7.75109        -1.58313         1.15184
C          9.02517        -0.81538         0.98996
C         10.24964        -1.57583         0.44750
C         11.42761        -0.66205         0.17553
C        -10.14740        -2.75972         0.37790
C         -9.01388        -3.70846         0.72400
C         -7.68314        -2.91309         0.89308
C         -6.40604        -3.64392         1.21771
C         -5.13255        -2.86455         1.37142
C         -3.90610        -3.31742         0.58208
C         -2.61638        -2.91611         1.29972
C         -1.35309        -3.68966         1.06940
C         -0.04405        -2.98514         1.48413
C          1.24433        -3.82337         1.21345
C          2.57942        -3.14525         1.40356
C          3.88599        -3.85629         1.06160
C          5.19734        -3.12245         1.39426
C          6.39535        -3.73745         0.61131
C          7.69656        -2.98697         0.58661
C          8.72598        -3.38642        -0.42571
C          9.79620        -2.38104        -0.79685
C         -8.84409        -4.70858        -0.43366
C         -8.29513        -5.91243        -0.42667
C         -6.30358        -5.15821         1.08488
C         -5.02445        -5.77977         0.53259
C         -3.93333        -4.78679         0.11482
C         -2.65120        -5.45481        -0.26979
C         -1.34258        -4.77475         0.02421
C         -0.06336        -5.45521        -0.36029
C          1.28850        -4.81953         0.03092
C          2.46433        -5.76729         0.09893
C          3.82758        -5.11579         0.25954
C          4.82483        -5.38372        -0.87482
C          6.19212        -4.60317        -0.70655
C          7.45180        -5.46741        -0.80567
C          8.66479        -4.64242        -0.94033
C         -7.84556        -7.15450        -0.55433
C         -6.45497        -7.55419        -0.96186
C         -5.18945        -6.85586        -0.55732
C         -3.90329        -7.64994        -0.72419
C         -2.62119        -6.92981        -0.57997
C         -1.35747        -7.70027        -0.16401
C         -0.13826        -6.92339        -0.73502
C          1.10497        -7.73116        -0.91605
C          2.40608        -7.09105        -0.56035
C          3.66122        -7.73531        -1.05306
C          4.91210        -6.91498        -1.15766
C          6.22364        -7.70409        -1.04201
C          7.44237        -6.81639        -0.88628
C         -6.26556        -8.98272        -1.38586
C         -5.15131        -9.70443        -1.16411
C         -3.93445        -9.14259        -0.45085
C         -2.59654        -9.78989        -0.78586
C         -1.40166        -9.15548        -0.63061
C         -0.10843        -9.85300        -0.65040
C          1.08809        -9.20010        -0.67785
C          2.40466        -9.86069        -0.25022
C          3.74117        -9.25421        -0.80477
C          4.91967        -9.48007         0.14121
C          6.05183        -8.76513         0.03934
O          8.62238        -1.32579         2.29830
O          2.37654        -6.95530         0.92588
O          3.37824        -1.73491        -0.33420
O         -7.05061        -5.85602         1.74556
O         -1.93578         0.18110        -1.07558
O          4.14650        -7.28456        -2.34472
O          4.40195         5.24311        -1.66742
O         -9.48561         1.56317         2.01429
O          5.71285        -0.95484         2.50137
O          4.48069         7.77957        -1.38900
O         -7.49090        -2.08333        -0.31413
O          0.55463        -1.57615        -0.48161
O         -5.69650        -3.54580         2.51389
O         -0.40235         5.37072        -2.02505
O         -7.20036         3.03979         1.77863
O          4.20452         1.11612         1.90541
O          0.32224        -7.25115        -2.05856
O         -0.71547        -4.49288        -1.25925
O          1.87556         7.40851         1.34213
O          0.67234         1.37356         1.42487
O          5.67281         3.53799         1.65765
O         -5.51544         6.55410        -2.14070
O         -3.12351         7.29278        -2.36354
O          6.89259         4.29587        -1.67488
O          9.60543         1.30452         2.03373
O          7.00905         0.56884        -0.64426
O          6.25865        -3.61842        -1.68600
O         -6.83701         3.98038        -1.76419
O          7.44760        -4.11288         1.50576
O          0.82715         2.70206        -1.90680
O         -5.80985        -6.53708        -1.81951
O          4.12891        -5.18527         1.66148
O         -0.49141         7.81053        -2.30340
O         -3.11122        -7.26843        -1.89198
O          3.65608         2.76173        -1.48454
O         -5.30208         1.37354        -1.38381
O         -1.66873        -0.75373         2.43419
O         -3.85032         3.92005        -2.32323
O         -2.18661        -3.91453         2.25392
O         -9.72810        -1.15271         2.23825
O         -3.50753        -4.80929        -1.26931
O          1.79072         4.88570         1.01746
O          1.94752        -3.86180         2.49407
O         -1.30198        -7.62551         1.21590
O         -6.51720         0.56539         2.12959
O          7.50235         2.94991        -1.41961
O         -3.72398         0.67657         1.96092
O         -1.83566         2.60745        -2.05193
O         -5.07839        -1.31408         3.14145
H         -5.00790        -0.36874         3.40242
O          5.39909        -3.42785         2.77448
H          6.02039        -2.76952         3.15842
O          6.41893        -8.42496        -2.29130
H          6.14494        -7.82667        -3.02068
O         -0.65020         6.93032         1.22518
H          0.10132         6.75768         1.84319
O         -4.14453        -9.31993         0.97721
H         -3.34762        -8.96975         1.43752
O          6.06044         7.65334         1.86281
H          5.33544         8.28356         2.12357
O         -9.34438        -4.39655         1.93191
H         -9.50190        -3.73844         2.64091
O         -2.78746         5.44949         0.72848
H         -2.11107         6.00476         1.19993
O         -5.50913         7.33309         1.41484
H         -6.04603         7.79623         2.09184
O          2.66553         0.43963        -1.45515
H          3.18455         1.00629        -2.06924
O          4.01560        -9.92469        -2.04195
H          4.85603        -9.53882        -2.39432
O         -3.79230         9.81692        -2.42710
H         -3.32546         9.15641        -2.99275
O          9.23646        -1.43702        -1.71840
H          8.65946        -1.91305        -2.35233
O         -3.98748        -2.46871        -0.58756
H         -3.69631        -3.01191        -1.36616
O         10.69388        -2.52980         1.42379
H         10.12569        -2.42433         2.22457
O         -6.90371         4.45066         2.00757
H         -7.01597         4.50973         2.98777
O         -0.04488        11.18458         0.20124
H         -0.10735        10.92322         1.14236
O          4.16925        -4.82481        -2.01021
H          4.76090        -4.09742        -2.34957
O          1.69471        -3.98934        -1.07649
H          0.91260        -3.51294        -1.44284
O          3.77882         9.15982         1.93223
H          2.98484         8.63340         2.19777
O         -7.94626         1.02817        -1.18748
H         -7.11955         1.17854        -1.71274
O         -0.10180        -2.71302         2.87950
H         -0.29757        -3.54304         3.36269
O          2.42522        -9.81868         1.18345
H          2.31636        -8.88612         1.47664
O         -4.46011        -6.47714         1.67187
H         -5.20184        -6.82019         2.21988
H         12.35931        -1.17662        -0.10529
H         12.38474         1.22818         0.17811
H         11.11231         3.46503         0.32235
H          9.82108         5.57451         0.43987
H          8.52668         7.62567         0.47291
H          7.16865         9.80295        -0.17120
H          5.01649        10.99692        -0.15402
H          2.50440        10.98262        -0.11395
H          0.24217        10.35199        -1.65281
H         -2.36810        10.93864        -0.31323
H         -4.94805        11.00294        -0.32279
H         -6.85604         9.75216         0.47569
H         -8.27655         7.66469         0.30053
H         -9.72700         5.61261        -0.11014
H        -10.98727         3.40471        -0.28088
H        -12.32016         1.32535         0.21854
H        -12.36676        -1.08756         0.27582
H        -10.89483        -3.09187        -0.35891
H         -9.20703        -4.33216        -1.40960
H         -8.55549        -7.98388        -0.38521
H         -7.12029        -9.46298        -1.88931
H         -5.11860       -10.75474        -1.49437
H         -2.60780       -10.86234        -1.04115
H         -0.12440       -10.94809        -0.52741
H          2.38299       -10.93989        -0.54083
H          4.83058       -10.26510         0.90752
H          6.89904        -8.96710         0.71241
H          8.40889        -7.33785        -0.98648
H          9.48325        -5.01935        -1.57457
H         10.67473        -2.90955        -1.26223
