         404
 CSIRO Nanostructure Databank - Neutral Graphene Oxide Data Set
C          1.92609         3.26453         1.91557
C          0.80380         3.84842         2.44452
C          1.54578         6.08232         1.76170
C          0.62304         5.25747         2.38223
C          1.32532         7.52102         1.64031
C          0.24768         8.17699         2.28435
C          0.66416        10.24955         1.08488
C         -0.01698         9.52844         2.09115
C          0.46946        11.67982         0.83105
C         -0.16373        12.57821         1.65603
C          0.94335        14.74257         0.97484
C         -0.10669        14.00636         1.50398
C          0.94027        16.20824         0.99679
C         -0.20079        16.96767         1.12923
C          0.96042        19.13567         1.05267
C         -0.18955        18.40493         1.16965
C          1.04476        20.64337         1.23190
C         -0.17660        21.37109         0.74412
C          1.14400        23.36567         0.19234
C         -0.10793        22.65812         0.32739
C          1.16205        24.78512        -0.03043
C         -0.02431        25.56621         0.06704
C          1.21973        27.61243        -0.40830
C          0.00563        26.92611        -0.13895
C          1.24066        29.04177        -0.58448
C          0.04223        29.79556        -0.69021
C          1.29314        31.87878        -0.90989
C          0.06821        31.16060        -0.87309
C          1.31970        33.30659        -1.12581
C          0.14211        34.03484        -1.43164
C          1.42670        36.08985        -1.67824
C          0.19908        35.38502        -1.71407
C          1.47549        37.45471        -2.10198
C          4.09175         3.45646         0.79348
C          2.94935         4.06094         1.30567
C          3.71582         6.28448         0.56524
C          2.75263         5.50496         1.18709
C          3.51837         7.75478         0.40911
C          2.15003         8.27235         0.76186
C          3.40340        10.75327        -0.56082
C          1.67780         9.54311         0.39242
C          3.45171        12.13879        -0.33156
C          2.21878        12.84559        -0.03197
C          3.47386        14.74541         0.84041
C          2.17604        14.10280         0.51315
C          3.51041        16.21101         0.98660
C          2.22072        16.91591         0.76044
C          3.49962        19.12413         1.00817
C          2.21921        18.41901         0.81060
C          3.51769        20.48461         0.70608
C          2.31454        21.24240         0.64508
C          3.61024        23.25390        -0.07391
C          2.35927        22.61289         0.26828
C          3.58426        24.64531        -0.55185
C          2.37790        25.45640        -0.33405
C          3.69931        27.55965        -0.63676
C          2.43139        26.86324        -0.48470
C          3.71571        28.98697        -0.63570
C          2.48576        29.72682        -0.64954
C          3.75672        31.85488        -0.68683
C          2.50758        31.15110        -0.75846
C          3.73990        33.27056        -0.74305
C          2.56268        34.00601        -1.03630
C          3.85702        36.16519        -1.19010
C          2.62390        35.43003        -1.27664
C          3.90518        37.50723        -1.74811
C          2.67425        38.10089        -2.19824
C          6.33047         3.63530        -0.18356
C          5.18179         4.22564         0.29677
C          6.05330         6.45018        -0.47500
C          5.12709         5.72497         0.47402
C          5.81842         7.78452        -0.79362
C          4.62537         8.53919        -0.28981
C          5.76451        10.71335        -0.99251
C          4.56615        10.00177        -0.65299
C          5.91774        12.09937        -0.66202
C          4.73521        12.73353        -0.19269
C          6.01556        14.81590         0.50060
C          4.76872        14.04226         0.47255
C          5.94162        16.07944         1.15959
C          4.69772        16.85462         1.22768
C          5.98342        19.10086         1.34446
C          4.67462        18.36405         1.59033
C          6.05110        20.36533         0.57299
C          4.79125        21.12628         0.29229
C          6.09132        23.25503        -0.17571
C          4.83926        22.58108         0.00246
C          6.15919        24.64832        -0.43784
C          4.91762        25.37814        -0.74979
C          6.16993        27.53448        -0.75279
C          4.92492        26.85097        -0.68674
C          6.17139        28.94853        -0.80298
C          4.96170        29.68252        -0.68809
C          6.24543        31.79885        -0.57672
C          4.99107        31.12260        -0.63094
C          6.28139        33.24530        -0.31752
C          4.95394        34.02086        -0.43653
C          6.25554        36.05888        -0.45098
C          5.01627        35.46209        -0.71707
C          6.34418        37.98277        -1.47727
C          5.07548        38.23537        -2.05956
C          8.65632         3.82934        -1.01042
C          7.44535         4.41356        -0.66222
C          8.35455         6.59216        -1.41784
C          7.28206         5.83001        -0.85236
C          8.01376         7.90400        -1.85275
C          6.77889         8.47461        -1.58573
C          8.82559        11.35172        -1.77085
C          6.29714         9.79974        -2.08753
C          8.61566        12.39687        -0.86223
C          7.28237        12.72119        -0.17720
C          8.46808        14.88298         0.55617
C          7.24578        14.20186         0.22389
C          8.42910        16.14277         1.24035
C          7.15489        16.53994         1.69006
C          8.47347        19.19194         1.83927
C          7.11887        18.62614         1.89810
C          8.48673        20.62450         1.43194
C          7.35223        21.12377         0.58469
C          8.59604        23.35354         0.22913
C          7.36556        22.55071         0.09287
C          8.61793        24.64713        -0.23908
C          7.38816        25.35831        -0.49565
C          8.65489        27.45690        -0.83499
C          7.42783        26.78738        -0.73591
C          8.74113        28.90549        -1.09228
C          7.42176        29.68291        -1.06539
C          8.71908        31.80372        -0.75872
C          7.46401        31.12413        -0.78201
C          8.73580        33.24473        -0.71233
C          7.53522        33.97435        -0.55509
C          8.72901        36.12860        -0.83049
C          7.51804        35.39366        -0.56394
C          8.77428        37.53122        -1.32787
C          7.62088        38.15665        -1.96806
C         11.05183         3.94736        -1.47894
C          9.79927         4.62095        -1.33004
C         10.92791         6.84139        -1.39202
C          9.67631         6.02812        -1.50604
C         11.07531         8.30356        -1.62717
C         10.01396         9.14542        -2.01226
C         11.15070        11.07925        -1.08011
C         10.01086        10.52897        -1.71361
C         11.07337        12.37757        -0.51565
C          9.79859        12.98899        -0.30124
C         10.94580        14.91805         0.77886
C          9.74771        14.25726         0.34884
C         10.88101        16.23426         1.31040
C          9.64599        16.94024         1.47510
C         10.95461        19.07946         1.68999
C          9.69018        18.35104         1.73798
C         11.02780        20.53954         1.48459
C          9.79531        21.33069         1.33969
C         11.15259        23.26844         0.44619
C          9.83209        22.72023         0.75069
C         11.21566        24.56469        -0.25835
C          9.91901        25.26351        -0.59705
C         11.25095        27.49041        -0.73181
C          9.93420        26.72881        -0.88219
C         11.19193        28.96064        -0.55605
C          9.99241        29.64798        -0.78014
C         11.18597        31.80939        -0.59291
C          9.95514        31.08356        -0.73027
C         11.20128        33.23643        -0.70677
C          9.96547        33.96594        -0.78288
C         11.19120        36.12147        -1.10845
C          9.92882        35.39119        -0.86454
C         11.20888        37.60399        -0.79519
C          9.97136        38.20394        -1.39240
C         13.49163         3.95799        -1.76441
C         12.26848         4.62457        -1.52329
C         13.53412         6.81978        -1.37281
C         12.26206         6.08201        -1.26714
C         13.57419         8.20332        -1.28724
C         12.32459         8.93521        -1.32303
C         13.58603        11.01377        -0.83358
C         12.36243        10.33418        -1.09207
C         13.52746        12.36081        -0.35965
C         12.27529        12.99760        -0.08564
C         13.45988        14.88616         0.87352
C         12.23098        14.27200         0.54755
C         13.44439        16.15564         1.59232
C         12.11269        16.88957         1.79332
C         13.45595        19.04054         1.82754
C         12.13927        18.36421         1.84604
C         13.50892        20.53151         1.58689
C         12.22285        21.24308         1.39459
C         13.57404        23.29551         0.73593
C         12.29194        22.61599         0.89383
C         13.61837        24.66990         0.34994
C         12.44633        25.36767        -0.08111
C         13.63693        27.50388         0.05221
C         12.45461        26.75609        -0.26230
C         13.62180        28.96028        -0.02917
C         12.41488        29.66585        -0.29545
C         13.63496        31.81285        -0.22604
C         12.40695        31.09911        -0.36500
C         13.62817        33.24330        -0.35400
C         12.45316        33.92734        -0.66065
C         13.68127        36.18854        -0.70198
C         12.49942        35.37499        -0.97388
C         13.71099        37.58962        -1.02158
C         12.49394        38.26317        -1.20896
C         15.94671         3.96622        -1.97977
C         14.73585         4.61970        -1.71657
C         16.09652         6.83770        -1.56314
C         14.77539         6.04871        -1.35921
C         16.06807         8.31704        -1.62198
C         14.83815         8.94007        -1.31846
C         16.06006        11.05841        -1.06231
C         14.82651        10.34539        -1.07681
C         15.98493        12.48569        -0.67582
C         14.73547        13.06274        -0.14598
C         15.96794        14.97853         0.84321
C         14.71666        14.32385         0.48677
C         15.94710        16.27006         1.47881
C         14.70525        16.90651         1.69465
C         15.87147        18.78937         2.59147
C         14.66067        18.22206         2.17113
C         15.87704        20.93811         2.40122
C         14.72017        21.38380         1.77856
C         16.04208        23.33804         1.07950
C         14.77343        22.66433         1.15285
C         16.07267        24.71516         0.73243
C         14.84209        25.39852         0.47562
C         15.99877        27.56092         0.94214
C         14.80991        26.81872         0.39986
C         16.06902        28.99697         0.50751
C         14.84552        29.68183         0.11719
C         16.13903        31.79801        -0.03401
C         14.84988        31.08050        -0.06053
C         16.05982        33.23190         0.28826
C         14.90774        33.99474        -0.25522
C         16.07704        36.38079        -0.03311
C         14.92179        35.50962        -0.35580
C         16.18710        37.65826        -0.68303
C         14.98804        38.24926        -1.15456
C         18.30030         3.97516        -2.73767
C         17.13907         4.69081        -2.25246
C         18.19262         6.88709        -2.93169
C         17.17835         6.09188        -2.17317
C         18.39560         8.32832        -2.43522
C         17.28795         9.05975        -1.85747
C         18.51190        11.26337        -1.22366
C         17.28552        10.47158        -1.45987
C         18.51998        12.43337        -0.40477
C         17.27026        13.18553        -0.27633
C         18.43314        14.98304         0.99526
C         17.20171        14.38409         0.56904
C         18.41538        16.29958         1.54568
C         17.16665        16.96605         1.73468
C         18.35826        19.10478         2.32803
C         17.14171        18.29489         2.25590
C         18.37968        20.54955         2.27163
C         17.18494        21.38799         2.07022
C         18.55451        23.23212         1.15650
C         17.24118        22.63058         1.42327
C         18.60135        24.70863         0.76648
C         17.31792        25.44980         0.71146
C         18.53454        27.58501         0.89302
C         17.31233        26.83535         0.73988
C         18.48477        28.95490         1.08881
C         17.26070        29.65601         0.74730
C         18.52649        31.84801         1.00782
C         17.38695        31.08693         0.43802
C         18.42598        33.25696         1.09346
C         17.09045        33.78826         0.97682
C         18.47584        36.36860         0.57855
C         17.13247        35.95126         0.74390
C         18.61463        37.61312        -0.13012
C         17.46975        38.27071        -0.66313
C         19.41461         4.65544        -3.14161
C         20.60287         6.74613        -3.57703
C         19.45642         6.08429        -3.16805
C         20.63364         8.14882        -3.54001
C         19.59784         8.88535        -2.94238
C         20.97231        11.46728        -1.27751
C         19.77396        10.93105        -1.76232
C         20.94862        12.45693        -0.29946
C         19.71641        13.03031         0.07543
C         20.83599        14.93639         1.28161
C         19.67051        14.30500         0.80420
C         20.81445        16.21988         1.82431
C         19.61843        16.96149         1.92083
C         20.80538        19.09827         2.38096
C         19.59040        18.38488         2.25435
C         20.82575        20.47981         2.37438
C         19.63394        21.22151         2.20789
C         20.85049        23.40826         2.00391
C         19.72227        22.63672         1.83714
C         20.90654        24.79033         1.61813
C         19.84005        25.44853         1.07339
C         21.05136        27.71216         1.00432
C         19.85180        26.88929         0.60493
C         20.97872        28.99942         1.36681
C         19.67545        29.69303         1.68502
C         20.75620        32.01452         1.86302
C         19.68735        31.19809         1.45355
C         20.71736        33.40830         1.73229
C         19.55205        34.10250         1.33694
C         20.85585        36.16285         0.81102
C         19.60126        35.56120         0.98741
C         21.00406        37.44780         0.24608
C         19.92555        38.15633        -0.24952
O          1.01280        12.19347        -0.37535
O          7.75949        21.38647        -0.78773
O          8.07802        29.32341        -2.33029
O         15.28398        34.60977        -1.54336
O          5.87788         9.93763        -3.22897
O         17.15472        31.37613        -0.99920
O          7.05162        17.49130         2.71987
O         16.65418        13.39830        -1.60759
O         15.77541        19.94295         3.37404
O          4.57901         8.46992         1.20445
O         18.75945        23.64939        -0.23050
O          5.45228        20.30312        -0.75104
O         13.72442        19.59229         0.44829
O         11.51931         6.49785        -0.07752
O          4.17610        24.83013        -1.88539
O         16.85597        34.96485         1.68863
O          8.89323         8.62846        -2.68812
O          8.33243        20.30517         2.85203
O         10.74983        27.07174        -2.04535
O         15.67177         6.34525        -0.24565
O         11.88800        35.71674        -2.30014
O         12.74842        16.15144         2.89828
O         19.86084        10.24638        -2.96895
O          2.18809        10.11007        -0.77270
O          5.53819        33.66792         0.86980
O          2.23735        17.69010        -0.49760
O          4.21402        13.98822         1.85850
O         10.64462        24.49719        -1.61547
O          9.73291        22.50665         2.22671
O          6.28313        37.42389        -0.17808
O         17.59047         7.05537        -4.28756
H         18.28364         7.45697        -4.85548
O         19.91123        26.79931        -0.85452
H         19.76202        27.69685        -1.21964
O          5.68368         5.98241         1.81109
H          5.55402         6.94826         1.97789
O         15.78769        27.59052         2.41062
H         16.50320        28.14418         2.79145
O         11.11230        37.68566         0.67698
H         10.94086        38.62196         0.91130
O         19.50257        29.56446         3.14134
H         19.65694        28.62532         3.37737
O          7.44010        12.01592         1.10570
H          6.71162        12.29994         1.69946
O          4.42735        18.38072         3.03151
H          5.20547        17.94988         3.45574
O          7.93757        11.11583        -2.74182
H          8.22894        10.35626        -3.29599
O          1.11489        20.86826         2.68552
H          1.13932        21.83742         2.83234
H          2.07268         2.17657         1.97790
H          0.03320         3.23341         2.92944
H         -0.28375         5.68121         2.83456
H         -0.36949         7.62368         3.00439
H         -0.81083        10.01456         2.67551
H         -0.74564        12.19545         2.50854
H         -0.90761        14.56760         2.01126
H         -1.17448        16.47018         1.24514
H         -1.15136        18.90793         1.34605
H         -1.15701        20.88079         0.82672
H         -1.03845        23.17291         0.04976
H         -0.98132        25.08959         0.31517
H         -0.93348        27.48788        -0.05359
H         -0.93160        29.28997        -0.66104
H         -0.88633        31.69305        -0.97408
H         -0.82755        33.52365        -1.48872
H         -0.71522        35.92619        -1.99720
H          0.54428        37.95002        -2.41199
H          4.16756         2.35828         0.78669
H          2.71404        39.12570        -2.59543
H          6.41824         2.53790        -0.18939
H          4.98944        39.03569        -2.81111
H          8.78402         2.74120        -0.91025
H          7.79527        38.76665        -2.86660
H         11.04746         2.84864        -1.53557
H         10.01252        39.20576        -1.84566
H         13.47137         2.87942        -1.98101
H         12.49548        39.33807        -1.44416
H         15.94113         2.88089        -2.16011
H         15.00862        39.27030        -1.56301
H         18.27745         2.87656        -2.74647
H         17.59991        39.26168        -1.12261
H         20.31677         4.10753        -3.45292
H         21.48869         6.18067        -3.89972
H         21.51544         8.69486        -3.89808
H         21.92331        11.13909        -1.71641
H         21.89788        12.87269         0.06174
H         21.80682        14.42813         1.20628
H         21.76804        16.65590         2.15121
H         21.76162        18.55978         2.40876
H         21.79431        20.99724         2.39066
H         21.74202        22.98774         2.48983
H         21.84372        25.33250         1.81203
H         22.03997        27.26125         0.82476
H         21.90815        29.55824         1.55947
H         21.67273        31.55285         2.25753
H         21.62731        33.96299         1.99935
H         21.77417        35.62302         1.07733
H         22.01729        37.86293         0.14874
H         20.07368        39.12307        -0.75101
