         404
 CSIRO Nanostructure Databank - Neutral Graphene Oxide Data Set
C          3.55409         2.21803         4.55186
C          3.18593         3.53220         4.19991
C          4.49558         1.52722         3.81898
C          3.78651         4.18695         3.11290
C          2.42247         6.26895         3.40117
C          2.23341         7.61896         3.18124
C          3.50298         5.57494         2.80521
C          3.15433         8.38056         2.41508
C          1.93556        10.51474         2.86197
C          1.88170        11.89467         2.87027
C          3.04054         9.81575         2.31227
C          2.95695        12.67758         2.38145
C          1.83693        14.84714         2.98817
C          1.87265        16.22305         3.11883
C          2.95958        14.11940         2.50631
C          3.03971        16.96070         2.79592
C          3.09087        18.38829         2.93423
C          5.08213         2.10642         2.64395
C          4.74096         3.48332         2.30698
C          5.97530         1.37778         1.87876
C          5.41648         4.15120         1.26518
C          4.37060         6.28680         1.93160
C          4.24438         7.70599         1.79326
C          5.37246         5.57893         1.18709
C          5.23313         8.45182         1.06888
C          4.08023        10.56240         1.68105
C          4.06546        12.00802         1.77598
C          5.14584         9.86888         1.03789
C          5.19465        12.77052         1.37542
C          4.13283        14.84619         2.16102
C          4.18345        16.26502         2.32145
C          5.26510        14.15834         1.62321
C          5.38115        16.98694         2.01091
C          4.22640        19.08705         2.62783
C          5.41271        18.41667         2.16657
C          6.35512         1.84932         0.50769
C          6.30440         3.36974         0.37381
C          7.64113         1.26631        -0.01256
C          7.45260         4.11379        -0.27170
C          6.32269         6.32267         0.42479
C          6.32120         7.73959         0.43443
C          7.38529         5.61494        -0.30684
C          7.45932         8.46911        -0.07249
C          6.16720        10.64358         0.30997
C          6.26614        12.14116         0.58454
C          7.38763         9.93529        -0.18638
C          7.58427        12.81419         0.53661
C          6.47666        14.87894         1.34520
C          6.53685        16.29685         1.56909
C          7.63380        14.16940         0.94061
C          7.74530        17.02947         1.31315
C          6.58048        19.12894         1.87382
C          7.76527        18.46380         1.45602
C          8.74452         1.97433        -0.45388
C          8.75163         3.43086        -0.42033
C          9.83881         1.21652        -1.07237
C          9.92315         4.23617        -0.56793
C          8.64047         6.39174        -0.67228
C          8.65608         7.83687        -0.41928
C          9.90902         5.65631        -0.74398
C          9.90981         8.54023        -0.53729
C          8.69799        10.71334        -0.31958
C          8.75588        12.12333         0.12344
C          9.95366         9.95158        -0.38719
C         10.01688        12.76060         0.07031
C          8.92241        14.87970         0.98296
C          8.93351        16.35174         0.97404
C         10.15816        14.15230         0.52279
C         10.13901        17.04538         0.70627
C          8.96484        19.15897         1.21244
C         10.14938        18.48570         0.82751
C         11.16090         1.57446        -0.88181
C         11.22063         3.66204        -0.45826
C         12.36379         1.26387        -1.55225
C         12.40401         4.28328        -0.94131
C         11.12202         6.38964        -0.79483
C         11.11635         7.80774        -0.70887
C         12.37276         5.69545        -1.00221
C         12.43874         8.50800        -0.53519
C         11.18249        10.66571        -0.50846
C         11.18461        12.09401        -0.37090
C         12.38911         9.98551        -0.77081
C         12.39011        12.82128        -0.64556
C         11.31843        14.93749         0.06906
C         11.32077        16.36013         0.27159
C         12.40298        14.27052        -0.49524
C         12.50530        17.09671        -0.01627
C         11.34361        19.19385         0.57038
C         12.52243        18.53245         0.16174
C         13.54796         2.06761        -1.49152
C         13.58366         3.51794        -1.27289
C         14.74864         1.41971        -1.82828
C         14.75873         4.24023        -1.59591
C         13.58381         6.41330        -1.26941
C         13.60303         7.82465        -1.19931
C         14.76324         5.68002        -1.59684
C         14.78822         8.55841        -1.47324
C         13.57596        10.69911        -1.10314
C         13.52558        12.13380        -1.10175
C         14.77298         9.99043        -1.42813
C         14.57265        12.94850        -1.82361
C         13.62358        15.00511        -0.75634
C         13.67152        16.42919        -0.47613
C         14.73961        14.32926        -1.21774
C         14.86171        17.16844        -0.72963
C         13.71402        19.24997        -0.08808
C         14.88980        18.59768        -0.51483
C         16.00436         2.07950        -1.88059
C         16.00444         3.53528        -1.84429
C         17.17217         1.35022        -2.12334
C         17.16098         4.22925        -2.17320
C         15.94563         6.42866        -1.89842
C         15.97580         7.82189        -1.82583
C         17.11495         5.68691        -2.44026
C         17.29852         8.57072        -1.84676
C         16.06264        10.77064        -1.56670
C         15.87910        12.18600        -2.11022
C         17.14049        10.00156        -2.37967
C         17.16529        12.91781        -2.30936
C         16.02178        15.03657        -1.27951
C         16.04162        16.51028        -1.16463
C         17.21892        14.34554        -1.85740
C         17.24002        17.22312        -1.37250
C         16.10123        19.30307        -0.71213
C         17.28067        18.64594        -1.11619
C         18.47665         1.97318        -2.07226
C         18.45035         3.54229        -2.13430
C         19.71345         1.32683        -2.48833
C         19.66891         4.16843        -2.71431
C         18.37901         6.42407        -2.79800
C         18.47456         7.87475        -2.51095
C         19.65320         5.63674        -2.99260
C         19.63564         8.57929        -2.70744
C         18.47988        10.74549        -2.40741
C         18.47714        12.19532        -2.34628
C         19.65343        10.03854        -2.60839
C         19.64619        12.92398        -2.40146
C         18.36782        15.18057        -2.29019
C         18.43172        16.57659        -1.84131
C         19.66494        14.40546        -2.48781
C         19.65662        17.25121        -1.91712
C         18.51159        19.33398        -1.25461
C         19.70756        18.66898        -1.59886
C         20.95460         2.00859        -2.48304
C         20.96628         3.47295        -2.51454
C         22.16051         1.29079        -2.42610
C         22.12825         4.20455        -2.42623
C         20.95985         6.37810        -2.97739
C         20.92608         7.87146        -2.97838
C         22.17150         5.66926        -2.45610
C         22.22445         8.57530        -2.65121
C         20.93373        10.76242        -2.84917
C         20.94021        12.25328        -2.63933
C         22.24534        10.06054        -2.64787
C         22.18732        12.91566        -2.20450
C         20.90579        15.13958        -2.26553
C         20.88111        16.52220        -2.13201
C         22.13566        14.36242        -1.97052
C         22.15358        17.28371        -2.26653
C         20.94354        19.35057        -1.57969
C         22.18387        18.71300        -1.85790
C         23.45466         1.94742        -2.35666
C         23.42331         3.50296        -2.32203
C         24.63761         1.30857        -1.80020
C         24.49015         4.16575        -1.53879
C         23.27288         6.37136        -2.02305
C         23.20839         7.86300        -1.74752
C         24.42655         5.67787        -1.40051
C         24.54579         8.57870        -1.64883
C         23.41403        10.76963        -2.08410
C         23.39411        12.20430        -2.02615
C         24.58699        10.00523        -1.75659
C         24.64051        12.91495        -1.82668
C         23.45117        15.09200        -1.88208
C         23.45719        16.52844        -2.30590
C         24.70698        14.30780        -1.88404
C         24.75417        17.27193        -2.20503
C         23.38389        19.35754        -1.59483
C         24.70395        18.75367        -1.81855
C         25.79179         2.03944        -1.43627
C         25.74353         3.45705        -1.31243
C         27.01501         1.34280        -1.15095
C         26.80562         4.21357        -0.64682
C         25.68897         6.41590        -1.16202
C         25.70795         7.85316        -1.27452
C         26.83682         5.70436        -0.77647
C         26.91882         8.55380        -0.94532
C         25.81991        10.68911        -1.50563
C         25.93886        12.14339        -1.90433
C         26.95721         9.98900        -1.06617
C         27.07897        12.88642        -1.24649
C         25.95098        15.00972        -1.76477
C         26.00691        16.47400        -1.97039
C         27.10895        14.30492        -1.32897
C         27.21732        17.23153        -1.45170
C         25.89438        19.33817        -1.18713
C         27.08876        18.65975        -1.04022
C         28.16856         2.01156        -0.74810
C         28.08631         3.43529        -0.35107
C         29.42573         1.37219        -0.65193
C         29.33939         4.19610        -0.23115
C         28.02318         6.40650        -0.42685
C         28.06628         7.82695        -0.50549
C         29.19522         5.64868         0.05972
C         29.28458         8.55175        -0.18667
C         28.16003        10.70933        -0.70169
C         28.18504        12.15342        -0.73606
C         29.29763         9.99206        -0.26134
C         29.31623        12.85470        -0.23025
C         28.27935        15.04405        -0.86806
C         28.30237        16.43380        -0.85655
C         29.36864        14.29791        -0.25759
C         29.50315        17.18490        -0.46997
C         28.21387        19.29808        -0.42732
C         29.41790        18.63315        -0.16058
C         30.60242         2.09252        -0.34704
C         30.54438         3.54944        -0.25497
C         31.80989         1.42974        -0.07202
C         31.85440         4.29914        -0.30717
C         30.48122         6.41357         0.31674
C         30.46767         7.87836         0.15595
C         31.75010         5.71670         0.17554
C         31.67572         8.58052         0.45228
C         30.47027        10.69705         0.16251
C         30.45734        12.12362         0.22662
C         31.64166        10.00174         0.56327
C         31.57191        12.79243         0.78012
C         30.42065        14.97046         0.36607
C         30.64643        16.40163         0.14428
C         31.43515        14.21416         1.11417
C         31.63922        17.14157         0.95838
C         30.55298        19.28579         0.36488
C         31.72801        18.60021         0.80372
C         32.97738         2.12407         0.37461
C         33.00779         3.55791         0.34357
C         34.10063         1.42404         0.85209
C         34.13883         4.24184         0.79251
C         32.96697         6.48332         0.28439
C         32.89926         7.89904         0.66191
C         34.25013         5.70873         0.65325
C         34.04703         8.56107         1.15890
C         32.78375        10.68118         1.07896
C         32.72235        12.10243         1.21900
C         33.96690         9.96443         1.43292
C         33.79684        12.78056         1.87390
C         32.55758        14.94766         1.78431
C         32.45739        16.42213         1.77218
C         33.92088        14.27801         1.74744
C         34.37449        17.41517         1.76416
C         32.93943        19.29596         0.94573
C         34.23719        18.67467         1.09491
C         35.24286         2.10498         1.34078
C         35.25147         3.53950         1.34219
C         36.38927         1.40819         1.79781
C         36.38681         4.25314         1.83237
C         35.29861         6.43431         1.38123
C         35.23673         7.84879         1.53080
C         36.38633         5.69167         1.89199
C         36.36681         8.56064         2.06891
C         35.06248        10.64227         2.04736
C         34.81034        11.99820         2.40425
C         36.34737         9.99955         2.22271
C         36.69423        13.04207         2.46412
C         35.26503        15.01576         1.69295
C         35.40051        16.51053         1.52823
C         36.58792        14.32177         1.86506
C         36.55053        17.00337         0.83515
C         35.38198        19.16430         0.45415
C         36.55805        18.36529         0.36359
C         37.53047         2.09879         2.24071
C         37.52520         3.53566         2.27650
C         38.71010         1.40485         2.65288
C         38.67576         4.24224         2.75020
C         37.52414         6.38699         2.41453
C         37.52699         7.83020         2.42650
C         38.65709         5.66162         2.83068
C         38.76967         8.52338         2.60312
C         37.60372        10.70083         2.33752
C         37.73486        12.13415         2.24499
C         38.82900         9.92430         2.33977
C         39.00404        12.79041         1.86205
C         37.72383        14.85354         1.21403
C         37.70214        16.18247         0.65690
C         38.94253        14.09436         1.16903
C         38.87148        16.70665         0.04796
C         37.71118        18.85300        -0.28848
C         38.86107        18.05557        -0.44692
C         39.83785         2.09706         3.05178
C         39.84835         3.51168         3.10657
C         41.04121         4.23795         3.47860
C         39.79553         6.40708         3.48780
C         39.95949         7.79127         2.89112
C         41.05453         5.58767         3.58676
C         41.19249         8.40155         2.70930
C         40.11529        10.50413         2.11140
C         40.24966        11.94498         1.75696
C         41.26390         9.73080         2.25605
C         41.26645        12.42694         0.81586
C         40.07832        14.57349         0.50486
C         40.06273        15.91473        -0.06378
C         41.20199        13.68560         0.29906
C         41.18679        16.47719        -0.68452
C         40.02806        18.57081        -1.08238
C         41.16066        17.78790        -1.19751
O         18.69552         2.85807        -0.89306
O         31.51805        14.36759         2.62649
O         18.85541        14.91406        -3.62304
O         35.66174        12.63138         3.31494
O         33.34355        17.05987         2.65461
O         17.07021        14.39518        -0.40076
O          9.87164        14.30924         1.96545
O         16.34148        12.50934        -3.46494
O         19.52797         4.67277        -4.08175
O         23.99576         4.80889        -0.29288
O          7.82659        10.44157        -1.47785
O         22.69402        14.82386        -0.65318
O         11.35390         2.47906         0.21846
O         34.02280         6.18052        -0.72195
O          5.69428        11.61138        -0.67055
O         21.09429         7.13348        -4.22771
O         27.06940        16.91918        -2.87571
O         24.90969        18.28236        -3.21161
O         29.59941         5.95805         1.43701
O         30.67149        16.79631        -1.27057
O         22.77812        16.87634        -3.54451
O         17.38846         6.09636        -3.83358
O         20.95899        11.65269        -4.00125
O         23.82846         2.83281        -3.50950
O          6.28554         3.64766        -1.06296
O         34.57890        14.53353         0.44628
O         22.73557         9.25439        -3.81384
O          7.62039         6.05692        -1.68185
O         27.12050         3.71922         0.71037
O         40.03280        12.80031         2.93287
O         16.55716        11.02409        -0.22230
H         16.93435        10.17937         0.12468
O         32.18755         4.39533        -1.74327
H         33.01353         4.93854        -1.79479
O         12.72507         8.36695         0.93366
H         13.48286         8.95933         1.13149
O         39.37349         6.64895         4.88164
H         39.21782         5.77322         5.29470
O         26.28209        12.09258        -3.34488
H         26.38153        13.01779        -3.65748
O         22.59338         7.95452        -0.41457
H         23.15365         7.44600         0.21153
O         13.94519        13.21205        -3.12230
H         14.66819        13.24386        -3.79327
O          5.31002         1.32875        -0.38501
H          5.35538         1.88033        -1.20007
O         17.69655         8.64901        -0.43030
H         17.61514         7.75476        -0.03632
O         16.69201         9.85460        -3.73407
H         16.63510        10.75316        -4.13637
H          3.08689         1.74773         5.42841
H          2.44637         4.05572         4.82048
H          4.77558         0.50113         4.09664
H          1.70880         5.72970         4.03846
H          1.37443         8.11021         3.65644
H          1.09451         9.95800         3.29535
H          1.00364        12.38250         3.31382
H          0.91133        14.31757         3.25112
H          0.98508        16.76034         3.48332
H          2.19484        18.91534         3.29335
H          6.24720         0.35600         2.18222
H          4.25173        20.18093         2.73901
H          7.65841         0.16994        -0.10725
H          6.59209        20.22310         1.98893
H          9.57726         0.36811        -1.72045
H          8.98644        20.25276         1.32959
H         12.42081         0.32779        -2.12774
H         11.35318        20.28864         0.67947
H         14.72897         0.33173        -1.99043
H         13.72627        20.33971         0.06239
H         17.09945         0.28853        -2.40004
H         16.12716        20.38612        -0.52037
H         19.69938         0.24457        -2.68258
H         18.54460        20.41291        -1.04093
H         22.12022         0.21639        -2.19454
H         20.95570        20.41166        -1.28791
H         24.62844         0.21922        -1.65109
H         23.35348        20.37286        -1.16993
H         27.06253         0.26369        -1.35712
H         25.81399        20.36283        -0.79290
H         29.48754         0.28599        -0.81568
H         28.12327        20.36352        -0.16703
H         31.83016         0.33000        -0.09632
H         30.54301        20.38544         0.41738
H         34.09003         0.32396         0.85439
H         32.93574        20.35714         0.64707
H         36.39320         0.30820         1.78178
H         35.35342        20.13467        -0.06276
H         38.71697         0.30577         2.62580
H         37.71390        19.88315        -0.67494
H         40.74710         1.54780         3.33678
H         41.96170         3.66082         3.65610
H         41.97823         6.09171         3.90608
H         42.12615         7.85573         2.90047
H         42.24907        10.18428         2.07846
H         42.07097        11.74627         0.50045
H         42.00419        14.00799        -0.37938
H         42.11886        15.90309        -0.77172
H         40.01790        19.59962        -1.46966
H         42.06098        18.19170        -1.68128
