         324
 CSIRO Nanostructure Databank - Neutral Graphene Oxide Data Set
C          1.69453         1.66025        -0.13095
C          1.73546         3.02372         0.35792
C          2.60947         1.16866        -0.99509
C          2.80965         3.83672         0.11189
C          2.26477         5.47081         1.87429
C          2.57795         6.60833         2.62384
C          3.03423         5.13291         0.75730
C          3.56102         7.47548         2.16862
C          2.38209        10.27011         3.28865
C          2.16219        11.67491         3.23457
C          3.41815         9.71256         2.58670
C          3.01052        12.49006         2.52366
C          2.11862        14.65125         3.65844
C          2.03071        15.98361         3.51469
C          3.22271        13.87446         3.02781
C          3.04915        16.75405         2.69439
C          3.12043        18.23255         3.01659
C          3.61431         2.09176        -1.63523
C          3.90296         3.28642        -0.72096
C          4.92924         1.44222        -1.99386
C          5.04951         4.16391        -1.08452
C          4.08788         6.01772         0.32763
C          4.26520         7.30682         0.94662
C          5.04136         5.58433        -0.64663
C          5.23201         8.26978         0.44064
C          4.09441        10.36673         1.46913
C          3.90573        11.90972         1.50001
C          5.24994         9.72894         0.72985
C          4.97879        12.76524         0.87466
C          4.42006        14.63215         2.60051
C          4.43622        16.12792         2.92352
C          5.22274        14.13316         1.43462
C          5.49990        16.88820         2.18116
C          4.26238        18.92516         2.83371
C          5.47879        18.29413         2.31107
C          6.03298         2.20138        -2.25092
C          5.90006         3.71568        -2.27993
C          7.32164         1.59759        -2.47241
C          7.23723         4.47205        -2.30828
C          6.09450         6.42106        -0.99634
C          6.19014         7.74888        -0.46370
C          7.23506         5.89084        -1.78913
C          7.33612         8.54097        -0.83162
C          6.14776        10.56982         0.09110
C          6.02048        12.09872        -0.04984
C          7.21715         9.99581        -0.75884
C          7.39459        12.82871        -0.04497
C          6.48906        14.84752         1.16008
C          6.57263        16.22692         1.52966
C          7.50536        14.23031         0.40083
C          7.72540        16.99338         1.18900
C          6.58833        19.04923         1.90992
C          7.74802        18.40869         1.39889
C          8.50237         2.30484        -2.44993
C          8.52251         3.73351        -2.29149
C          9.80034         1.54653        -2.61921
C          9.72485         4.40653        -1.99660
C          8.53496         6.52841        -1.53570
C          8.52341         7.95582        -1.26271
C          9.70152         5.81458        -1.68230
C          9.71605         8.73372        -1.50631
C          8.45517        10.81600        -1.13750
C          8.47040        12.21851        -0.65357
C          9.74816        10.12617        -1.43442
C          9.61976        12.98438        -1.16039
C          8.67641        14.99777         0.14125
C          8.83940        16.34529         0.59065
C          9.67887        14.46630        -0.77894
C         10.06010        17.07876         0.38730
C          8.89619        19.14041         1.01125
C         10.07305        18.51634         0.54535
C         11.01734         2.27549        -2.09780
C         10.97591         3.68523        -1.88408
C         12.18558         1.55730        -1.89326
C         12.19064         4.37420        -1.55823
C         10.93586         6.53783        -1.22761
C         10.95574         7.96697        -1.73898
C         12.20836         5.78490        -1.45046
C         12.27024         8.70486        -1.71126
C         10.98357        10.87652        -1.66416
C         10.85511        12.33144        -1.65138
C         12.24703        10.20461        -1.74768
C         11.80785        13.21862        -2.15424
C         10.96984        15.13466        -0.85602
C         11.17483        16.35808        -0.17646
C         11.96856        14.57745        -1.68504
C         12.49643        16.86150        -0.16294
C         11.12820        19.37125         0.03879
C         12.46643        18.97211        -0.07722
C         13.39975         2.19387        -1.48289
C         13.41022         3.62387        -1.37187
C         14.55601         1.46044        -1.15998
C         14.59779         4.27422        -0.96819
C         13.40642         6.51320        -1.21093
C         13.44447         7.91038        -1.26232
C         14.56709         5.72737        -0.73465
C         14.68574         8.62486        -0.93559
C         13.54511        10.82456        -1.86085
C         13.76839        12.14492        -2.33861
C         14.72256        10.10367        -1.30155
C         14.93468        12.90452        -2.08486
C         13.15107        15.34914        -1.88605
C         13.48726        16.44558        -1.07167
C         15.06940        14.32405        -2.15391
C         14.76074        17.19011        -1.16032
C         13.51141        19.41346        -0.90954
C         14.71299        18.64619        -1.13949
C         15.75845         2.10356        -0.77308
C         15.78348         3.54022        -0.71367
C         16.92887         1.37080        -0.43336
C         17.04122         4.20197        -0.48415
C         15.90351         6.44770        -0.51736
C         15.96139         7.86822        -0.84180
C         17.12818         5.64454        -0.57348
C         17.20635         8.44564        -1.12051
C         16.10121        10.70645        -1.45448
C         16.15097        12.17821        -1.70156
C         17.27681         9.79816        -1.59517
C         17.37787        12.98476        -1.87706
C         16.09377        15.06232        -1.49173
C         16.00397        16.51528        -1.26004
C         17.31574        14.28527        -1.29083
C         17.19867        17.34665        -1.14478
C         15.87547        19.36150        -1.50237
C         17.15234        18.74828        -1.47086
C         18.15050         2.01978        -0.17343
C         18.20377         3.44381        -0.28834
C         19.32943         1.32640         0.28624
C         19.52663         4.14498        -0.08981
C         18.34761         6.28047        -0.80502
C         18.42706         7.66959        -1.09477
C         19.57784         5.46195        -0.84266
C         19.70694         8.29805        -1.28043
C         18.51355        10.22246        -2.05631
C         18.59674        12.37321        -2.10936
C         19.76397         9.66686        -1.63960
C         19.79191        12.72597        -1.46492
C         18.49380        14.66076        -0.63242
C         18.44898        16.90913        -0.65974
C         19.70974        13.93079        -0.70490
C         19.67673        17.54912        -0.89992
C         18.36425        19.48848        -1.57829
C         19.64577        18.90992        -1.40192
C         20.58114         1.95099         0.33055
C         20.69760         3.23844        -0.47918
C         21.65902         1.43404         1.07427
C         22.04538         3.95710        -0.36581
C         20.91142         6.14423        -0.95643
C         20.94462         7.61537        -1.05760
C         22.12821         5.42201        -0.53590
C         22.14270         8.31800        -0.97929
C         20.96859        10.44498        -1.50441
C         20.97322        11.89144        -1.41210
C         22.17431         9.74697        -1.16157
C         22.16576        12.56569        -1.04698
C         20.93836        14.53220        -0.30019
C         20.90594        16.81696        -0.59569
C         22.12920        13.96428        -0.70800
C         22.06351        16.92465        -1.30240
C         20.85057        19.70100        -1.41180
C         22.12039        19.07389        -1.52996
C         22.88689         2.12285         1.24831
C         23.17804         3.32234         0.43292
C         23.79580         1.77154         2.24599
C         24.33928         4.16135         0.76620
C         23.30594         6.11070        -0.33545
C         23.33805         7.63386        -0.33868
C         24.45913         5.43259         0.20542
C         24.68383         8.22922        -0.74207
C         23.39933        10.47214        -0.97883
C         23.41252        11.87808        -0.91575
C         24.68438         9.74085        -0.87605
C         24.60613        12.64155        -0.52315
C         23.38145        14.73594        -0.86899
C         23.35163        16.20663        -1.11339
C         24.61864        14.06032        -0.44745
C         24.54210        17.00981        -0.74367
C         23.33071        19.33520        -0.88789
C         24.49455        18.45330        -0.74925
C         24.98611         2.52155         2.50537
C         25.30947         3.68136         1.71413
C         25.83670         2.16412         3.56646
C         26.50838         4.38773         1.95148
C         25.78749         6.07828         0.19902
C         25.91710         7.49009        -0.30051
C         26.89226         5.51185         1.06816
C         27.04857         8.26810         0.32633
C         25.89260        10.51353        -0.41898
C         25.78190        11.97177        -0.14945
C         26.98158         9.75231         0.26829
C         26.87629        12.70275         0.38360
C         25.78157        14.82318        -0.17799
C         25.73041        16.29973        -0.35981
C         26.95173        14.12985         0.27942
C         26.92019        17.03701        -0.19973
C         25.69909        19.13760        -0.51747
C         26.92586        18.45724        -0.35920
C         27.01906         2.88117         3.82849
C         27.37641         3.98720         2.99699
C         27.91079         2.47949         4.87992
C         28.67420         4.59151         3.12208
C         28.14048         6.29617         1.34717
C         28.29703         7.58386         0.84300
C         29.10711         5.59799         2.19938
C         29.51658         8.40372         0.95174
C         28.16021        10.55364         0.64330
C         27.95084        11.87449         0.92375
C         29.48301         9.87359         0.66218
C         29.82742        13.01677         0.85464
C         28.22862        14.92012         0.50561
C         28.19579        16.38941         0.16530
C         29.59216        14.29784         0.35376
C         29.43758        17.08028        -0.27183
C         28.14723        19.17413        -0.39149
C         29.38654        18.49039        -0.48571
C         29.14032         3.06162         5.00975
C         29.58056         4.07827         4.09527
C         30.92372         4.52191         4.11528
C         30.48703         5.85118         2.15220
C         30.78989         7.86556         1.06921
C         31.38903         5.36010         3.11273
C         31.98656         8.64251         1.25479
C         30.79682        10.68444         0.62412
C         30.88315        12.18329         0.47258
C         31.99610         9.99240         1.11208
C         31.90612        12.79596        -0.27075
C         30.69295        14.93677        -0.26705
C         30.63981        16.38256        -0.51088
C         31.84227        14.16377        -0.54808
C         31.78651        17.10128        -0.91034
C         30.57051        19.18880        -0.84145
C         31.75166        18.49254        -1.05321
O         26.80345         5.18226        -0.36653
O         14.50506         9.67343         0.08629
O         16.23808        11.64934        -0.30338
O          4.39278        13.94860         0.22437
O         15.00781         6.11126         0.60773
O         30.22388        10.12194        -0.60691
O          9.15063        14.03906        -2.07620
O         26.44046         9.03257         1.46946
O         28.88479        12.50398         1.74556
O         20.25886         5.49582        -2.12286
O         11.67162         8.15867        -2.97648
O         31.02368         6.48451         1.01907
O         25.69186        10.20596        -1.83158
O         23.56433        15.27449        -2.24989
O          3.19154        11.06380         0.55294
O          7.10896         5.60641        -3.24085
O         12.74648        12.75079        -3.08219
O         18.47147        15.78523         0.17803
O         28.18606        15.90990         1.58221
O         22.09990        17.89274        -2.31193
O         23.06785         3.16240        -1.03296
O          3.93017         8.50242         3.04770
O         20.89198        15.77002         0.36535
O         25.55405         7.59013        -1.71224
O         18.56986        11.27137        -2.96799
O         14.06396        14.99785        -2.87805
O          7.38371        10.59485        -2.09744
O          5.16455         3.22277         0.03868
O         12.81001        17.85787         0.74818
O          4.51688        13.83316         3.82461
O         20.52244         2.87273        -1.86097
H         21.40793         2.62814        -2.20959
O          5.17334         4.04981        -3.48747
H          5.58770         4.87437        -3.84885
O         19.68869         4.45339         1.32265
H         18.85051         4.83916         1.65437
O          2.72014        16.59559         1.29413
H          1.86533        17.04063         1.12099
O         23.20956         8.02452         1.07683
H         24.07075         7.88532         1.52781
O          5.51973        12.27539        -1.39175
H          5.05191        13.14146        -1.41509
O          9.99878         1.27408        -4.02363
H         10.06437         2.13146        -4.49268
O          4.74358        16.29705         4.32569
H          4.77370        15.39102         4.72078
O         10.82069         6.68180         0.23347
H         10.93045         5.79434         0.63602
O          2.97255         2.58593        -2.84174
H          3.63847         3.12155        -3.34152
H          0.89913         1.00787         0.25904
H          0.90322         3.36049         0.99195
H          2.55678         0.12436        -1.33685
H          1.47352         4.79834         2.22931
H          2.07810         6.80911         3.57968
H          1.88923         9.68408         4.07475
H          1.45661        12.11037         3.95516
H          1.35230        14.10922         4.23348
H          1.19254        16.53111         3.97527
H          2.20718        18.74474         3.35918
H          5.01051         0.34357        -1.99446
H          4.29209        20.00793         3.03062
H          7.36065         0.50146        -2.56723
H          6.57602        20.14443         2.01183
H          9.71702         0.54753        -2.11947
H          8.87654        20.23678         1.09822
H         12.18211         0.46742        -2.04243
H         10.83275        20.36824        -0.32126
H         14.52944         0.36214        -1.21740
H         13.45128        20.41722        -1.35723
H         16.88082         0.27213        -0.40637
H         15.80947        20.45095        -1.64186
H         19.21504         0.30696         0.68709
H         18.29667        20.56050        -1.81447
H         21.49319         0.51987         1.66649
H         20.77689        20.77720        -1.19423
H         23.57735         0.90427         2.88745
H         23.44401        20.32138        -0.41015
H         25.58661         1.29180         4.18833
H         25.70769        20.23709        -0.55110
H         27.60293         1.66694         5.55354
H         28.12383        20.26725        -0.51009
H         29.83717         2.72295         5.79020
H         31.61409         4.12254         4.87160
H         32.45410         5.61462         3.03657
H         32.89999         8.10331         1.54179
H         32.89429        10.58044         1.34826
H         32.76835        12.20817        -0.61482
H         32.69432        14.62836        -1.06157
H         32.73225        16.57436        -1.09235
H         30.53138        20.27880        -0.97696
H         32.66433        19.03114        -1.34337
