         652
 CSIRO Nanostructure Databank - Neutral Graphene Oxide Data Set
C          5.95857        31.81801        -0.33682
C          5.92658        33.15743        -0.17588
C          8.37190        27.50519        -0.01954
C          8.37658        28.89373         0.13982
C          7.16644        29.66075        -0.05130
C          8.35050        31.77015         0.32429
C          7.14399        31.03804         0.00306
C          8.36551        33.15745         0.38033
C          7.05272        33.88556         0.52534
C          8.34631        36.02673         0.11156
C          7.13533        35.34870         0.22716
C          8.37993        37.44788         0.08694
C         10.76685        23.19020        -0.13671
C         10.77439        24.60587        -0.05660
C          9.57322        25.34745        -0.06190
C         10.81950        27.44657         0.26514
C          9.57467        26.75479         0.06562
C         10.82945        28.86667         0.44801
C          9.60990        29.56360         0.43904
C         10.87045        31.79676         0.81176
C          9.55961        31.01581         0.67342
C         10.82366        33.17350         0.32691
C          9.61167        33.87227         0.26774
C         10.78918        36.00668        -0.24365
C          9.60455        35.30293         0.02090
C         10.82102        37.43623        -0.23959
C          9.59338        38.15964        -0.01023
C         10.81905        40.29034        -0.05819
C          9.61717        39.57195         0.08859
C         10.85378        41.70865         0.06133
C         13.22795        18.82395        -0.02980
C         13.29866        20.32297         0.08146
C         11.97846        21.04676        -0.03167
C         13.25267        23.14018        -0.25438
C         11.96608        22.42859        -0.15647
C         13.28258        24.59451        -0.07825
C         12.02317        25.31725         0.07254
C         13.34288        27.38210         0.54894
C         12.02750        26.69983         0.26303
C         13.29219        28.88526         0.46466
C         12.11528        29.56612         0.55905
C         13.37956        31.73676         0.28996
C         12.19344        31.04492         0.92752
C         13.33852        33.10580        -0.05155
C         12.03779        33.77269        -0.23403
C         13.31977        35.96401        -0.58326
C         12.02533        35.25871        -0.55177
C         13.27540        37.42041        -0.96894
C         12.03087        38.15806        -0.46472
C         13.23169        40.33946        -0.67239
C         12.01677        39.55539        -0.38723
C         13.26139        41.75393        -0.30155
C         12.06937        42.43972        -0.00156
C         13.29463        44.61566         0.06598
C         12.12577        43.86759         0.22975
C         13.36051        45.99956         0.33914
C         15.72544        14.66346         0.65587
C         15.69745        16.01988         0.27208
C         14.45931        16.69925         0.13663
C         15.65148        18.73996        -0.60610
C         14.39069        18.08294        -0.16376
C         15.65775        20.22876        -0.92522
C         14.30532        20.96929        -0.89784
C         15.69697        23.11563        -0.47007
C         14.39155        22.43619        -0.53843
C         15.67804        24.59206        -0.66559
C         14.45550        25.29613        -0.24326
C         15.78530        27.47445        -0.06061
C         14.44899        26.80474        -0.34336
C         15.83489        28.83161         0.15087
C         14.62118        29.58902         0.66803
C         15.79012        31.70625        -0.09513
C         14.59017        31.03505         0.23347
C         15.76775        33.12388        -0.25910
C         14.53223        33.82757        -0.27032
C         15.78507        35.99695        -0.40458
C         14.51674        35.27650        -0.46589
C         15.77173        37.45358        -0.47788
C         14.57784        38.13095        -0.67255
C         15.80030        40.34918        -0.66848
C         14.54968        39.58865        -0.84637
C         15.77806        41.70611        -0.49077
C         14.55969        42.45492        -0.01549
C         15.81447        44.66193        -0.14178
C         14.53045        43.92381        -0.48687
C         15.83723        45.98378         0.17427
C         14.58690        46.72352         0.35494
C         15.87605        48.83058         0.65642
C         14.64057        48.09528         0.61254
C         15.87516        50.23037         0.80579
C         18.21078        10.56648         1.84444
C         18.17259        11.96275         1.57580
C         16.95574        12.62057         1.27795
C         18.18661        14.68361         0.75582
C         16.94257        13.98185         0.90737
C         18.18847        16.03530         0.30613
C         16.94696        16.71895         0.07770
C         18.13084        18.76969        -0.61189
C         16.93963        18.08376        -0.32367
C         18.15276        20.19271        -0.83348
C         16.95609        20.91701        -0.82044
C         18.23855        23.12029        -0.85780
C         16.98870        22.37590        -0.59535
C         18.25961        24.53145        -0.80583
C         16.98366        25.30394        -0.75106
C         18.37352        27.36363        -0.09318
C         17.03848        26.68804        -0.18949
C         18.40313        28.87014         0.22720
C         17.07046        29.57510        -0.00194
C         18.24829        31.69664        -0.46848
C         17.03885        30.96176        -0.15396
C         18.20065        33.12147        -0.53393
C         16.99921        33.85898        -0.35355
C         18.26658        36.01671         0.13099
C         16.98681        35.29589        -0.27791
C         18.28624        37.51695        -0.29223
C         17.04916        38.18349        -0.48975
C         18.24601        40.31921        -0.85997
C         17.04714        39.59890        -0.68449
C         18.24395        41.78410        -1.00026
C         17.05244        42.44430        -0.40589
C         18.36084        44.64700        -0.47179
C         17.09425        43.91933        -0.21979
C         18.28408        46.15023        -0.44994
C         17.17097        46.63688         0.50039
C         18.33491        48.85360         0.52330
C         17.12306        48.14582         0.52228
C         18.33151        50.26509         0.74005
C         17.08497        50.96650         0.86556
C         18.29088        53.10234         1.11406
C         17.08743        52.37780         1.02948
C         18.30825        54.52509         1.28180
C         20.73018         6.32331         1.93993
C         20.70150         7.73612         1.91701
C         19.47618         8.44627         1.93873
C         20.67156        10.59143         1.91943
C         19.44340         9.86111         1.91091
C         20.60934        12.08250         2.15595
C         19.39180        12.70539         1.53988
C         20.67169        14.72297         0.89079
C         19.42157        14.03393         1.06443
C         20.67423        16.04855         0.34358
C         19.42527        16.67699         0.03905
C         20.69130        18.75356        -0.78982
C         19.38695        17.99992        -0.60337
C         20.63235        20.22474        -0.85663
C         19.43809        20.90331        -0.89547
C         20.65869        23.04794        -1.17997
C         19.46160        22.37632        -0.97987
C         20.67679        24.52008        -1.47582
C         19.46433        25.24812        -0.93779
C         20.68428        27.36140        -1.06881
C         19.53771        26.66659        -0.72483
C         20.78617        28.82647        -0.92142
C         19.61081        29.58941        -0.37720
C         20.62011        31.73296        -1.13451
C         19.46768        31.02520        -0.71093
C         20.64006        33.12866        -1.02720
C         19.43529        33.83231        -0.67374
C         20.77859        35.66039        -0.04801
C         19.47963        35.18250        -0.28031
C         20.78236        37.82874        -0.04239
C         19.46857        38.31036        -0.36803
C         20.72285        40.40996        -1.02071
C         19.48160        39.66999        -0.80005
C         20.80730        41.79481        -1.02240
C         19.54051        42.54940        -1.02682
C         20.83857        44.64513        -0.54675
C         19.54567        43.97896        -0.64730
C         20.79184        46.05450        -0.18877
C         19.61546        46.76812        -0.10345
C         20.78982        48.89252         0.29912
C         19.60458        48.17903         0.27292
C         20.82804        50.29073         0.65199
C         19.56039        50.98329         0.86377
C         20.77327        53.09420         1.33229
C         19.52820        52.37041         1.06604
C         20.80737        54.57976         1.01597
C         19.50008        55.27685         1.33541
C         20.76854        57.43046         1.43037
C         19.53425        56.66919         1.42289
C         20.73663        58.82322         1.38731
C         23.21207         3.52755         1.91711
C         21.99587         4.18966         1.94876
C         23.17834         6.34486         1.80898
C         21.94806         5.61534         1.90587
C         23.14896         7.75814         1.75709
C         21.94167         8.46372         1.83756
C         23.12412        10.63933         2.03786
C         21.92052         9.92380         1.89569
C         23.14654        12.11844         2.35316
C         21.89452        12.79232         1.82383
C         23.19662        14.74039         1.05450
C         21.89818        14.04885         1.26937
C         23.18783        16.10629         0.46179
C         21.90483        16.75367         0.12735
C         23.14695        18.77068        -0.55937
C         21.94399        18.09698        -0.34185
C         23.14351        20.12443        -1.13919
C         21.94434        20.98138        -0.77819
C         23.20772        23.01515        -1.54968
C         21.88255        22.26717        -1.60499
C         23.23738        24.48058        -1.52314
C         21.98838        25.19658        -1.02759
C         23.17205        27.38757        -1.73984
C         21.90379        26.63901        -1.49775
C         23.19340        28.87009        -1.75024
C         21.86327        29.53805        -1.70695
C         23.09182        31.79339        -1.91425
C         21.80045        31.03664        -1.72166
C         23.09899        33.21216        -1.52024
C         21.90525        33.83133        -1.15867
C         23.12135        35.99647        -0.87241
C         21.91527        35.17459        -0.67271
C         23.12735        37.47319        -0.80551
C         21.90955        38.28581        -0.64929
C         23.32666        40.33994        -1.16541
C         21.94592        39.62875        -1.20638
C         23.29531        41.80124        -0.97531
C         22.07935        42.50592        -0.95010
C         23.33268        44.76124        -0.82799
C         22.04123        43.94798        -0.69609
C         23.33644        46.05175        -0.05209
C         22.04431        46.74886         0.28576
C         23.32621        48.89105         0.22088
C         22.05015        48.19883        -0.18294
C         23.29766        50.38671         0.10559
C         22.03843        50.97121         0.70838
C         23.34327        53.12616         1.03438
C         22.09024        52.35095         1.17894
C         23.36072        54.55318         1.43020
C         22.02468        55.28510         1.59930
C         23.29562        57.44338         1.69453
C         22.01615        56.73690         1.55745
C         23.27501        58.96273         1.58751
C         21.93732        59.71382         1.58301
C         23.06434        61.41589         0.12448
C         21.92068        60.87613         0.62576
C         24.42403         4.23828         1.85101
C         25.66423         6.37841         1.78645
C         24.43422         5.64229         1.79658
C         25.69654         7.76880         1.73028
C         24.41300         8.52213         1.46454
C         25.68520        10.63973         2.15281
C         24.38625         9.89250         2.10061
C         25.63097        12.11581         2.01454
C         24.45624        12.79689         1.97219
C         25.67345        14.98315         1.41365
C         24.39428        14.32137         1.90583
C         25.68944        16.22197         0.81489
C         24.39762        17.01851         0.75260
C         25.72939        18.77109        -0.65412
C         24.42705        18.08344        -0.35178
C         25.74413        20.17076        -1.13780
C         24.44292        20.82218        -1.48791
C         25.65064        22.98891        -1.97513
C         24.38369        22.31483        -1.59039
C         25.65052        24.50961        -2.24737
C         24.39242        25.17924        -1.71683
C         25.65705        27.37581        -2.02933
C         24.45527        26.66026        -1.38418
C         25.66017        28.85678        -1.68734
C         24.39259        29.55733        -1.78632
C         25.74429        31.79148        -1.77937
C         24.41353        31.03602        -1.96236
C         25.54145        33.07244        -0.93811
C         24.43078        33.94721        -1.53150
C         25.54385        35.90097        -0.41424
C         24.40213        35.27476        -0.81651
C         25.46656        37.31309         0.05234
C         24.37234        38.17699        -0.45892
C         25.74274        40.20408        -0.28152
C         24.47026        39.52638        -0.64032
C         25.81937        41.69461        -0.36574
C         24.61387        42.48491        -0.81373
C         25.81586        44.60352         0.05025
C         24.64323        43.96800        -0.63142
C         25.79190        46.03781         0.19383
C         24.51066        46.72864         0.17985
C         25.75219        48.87936         0.58099
C         24.49095        48.18417         0.38921
C         25.75733        50.32366         0.66547
C         24.56700        51.05071         0.57226
C         25.81608        53.22227         1.06062
C         24.53064        52.46922         0.79721
C         25.74986        54.67132         0.53299
C         24.55436        55.37027         1.14438
C         25.77521        57.49386         1.12432
C         24.54455        56.72510         1.31937
C         25.70774        58.89423         0.98945
C         24.47786        59.60105         0.99258
C         24.34782        60.83054         0.35137
C         26.90515         8.50488         1.74068
C         28.13046        10.63837         1.68135
C         26.94040         9.91607         1.80781
C         28.18355        12.05957         1.76733
C         26.93856        12.81763         2.01699
C         28.19718        14.92051         1.28747
C         26.94200        14.31137         1.72202
C         28.18262        16.24178         0.78156
C         26.93747        16.90464         0.50319
C         28.18892        18.90014        -0.25832
C         26.96722        18.20029        -0.06919
C         28.21124        20.23302        -0.82217
C         26.93608        20.85862        -1.19070
C         28.21891        22.99614        -1.88153
C         26.93416        22.21914        -1.80489
C         28.20552        24.50670        -1.84760
C         26.91583        25.24436        -1.78404
C         28.13191        27.35556        -1.37245
C         26.92218        26.61291        -1.68780
C         28.06890        28.74060        -1.22235
C         26.85476        29.51916        -1.41732
C         28.04461        31.67404        -0.90271
C         26.89008        30.96782        -1.22607
C         28.07547        33.09628        -0.59046
C         26.83249        33.84102        -0.66594
C         27.95150        35.80136         0.46888
C         26.80010        35.17314        -0.31692
C         28.01349        37.34255         0.26297
C         26.67033        37.98042         0.59069
C         27.92375        40.14850         0.99266
C         26.58127        39.48625         0.78281
C         27.65436        41.56693         1.23786
C         26.81378        42.38149         0.51008
C         28.15786        44.52897         0.85150
C         26.89978        43.84410         0.54279
C         28.26521        45.96324         0.33151
C         26.96911        46.73852         0.48176
C         28.20035        48.89217         0.95032
C         26.94814        48.15550         0.65010
C         28.23219        50.35269         0.73060
C         27.03288        51.02382         0.69741
C         28.32815        53.25117         0.50170
C         27.01514        52.48675         0.51450
C         28.25578        54.69300         0.80282
C         27.06077        55.39331         0.81397
C         27.00044        56.80294         0.99723
C         29.37368        12.76056         1.60762
C         30.62908        14.84921         1.16964
C         29.41304        14.18119         1.39998
C         30.65112        16.21447         0.79344
C         29.41671        16.90623         0.53787
C         30.66090        18.93122        -0.09645
C         29.42391        18.25025         0.06835
C         30.68578        20.27069        -0.59963
C         29.44106        20.88620        -1.01577
C         30.78355        23.04271        -1.56410
C         29.50190        22.24317        -1.62611
C         30.69020        24.53037        -1.40934
C         29.46020        25.22392        -1.51124
C         30.61147        27.33780        -1.13381
C         29.39761        26.62772        -1.28874
C         30.58619        28.78859        -0.86581
C         29.28070        29.49877        -0.85822
C         30.58055        31.64573        -0.61591
C         29.34510        30.98010        -1.17282
C         30.52486        32.99053         0.04794
C         29.25709        33.76117        -0.22125
C         30.46503        35.83438         0.43347
C         29.27995        35.14892         0.17106
C         30.45559        37.22416         1.01649
C         29.16770        38.01174         1.00630
C         30.43857        40.18540         1.66828
C         29.12687        39.51193         1.15836
C         30.50688        41.70278         1.44243
C         29.45530        42.54734         1.69165
C         30.64542        44.57288         1.08738
C         29.35710        43.91330         1.21918
C         30.66127        46.02228         1.01784
C         29.49539        46.68991         0.82799
C         30.76999        48.89242         0.86554
C         29.48742        48.15394         1.04033
C         30.72296        50.30377         0.71414
C         29.51209        51.05472         0.68729
C         29.54326        52.45587         0.64768
C         31.86767        16.90938         0.64356
C         33.11055        18.96702         0.16886
C         31.88856        18.26115         0.23595
C         33.13740        20.31975        -0.20842
C         31.92565        20.95002        -0.64048
C         33.09727        23.12317        -0.42375
C         32.10197        22.32587        -1.23855
C         33.06184        24.59883        -0.52247
C         31.86743        25.26198        -1.10561
C         33.15428        27.42430        -1.16378
C         31.84356        26.66461        -1.10478
C         33.01986        28.84704        -0.58063
C         31.83324        29.57822        -1.21193
C         33.03675        31.73713        -0.69292
C         31.77736        31.01233        -0.74389
C         33.00416        33.18196        -0.51581
C         31.77870        33.82185        -0.16106
C         32.96357        35.94951         0.18054
C         31.74060        35.19058         0.15034
C         32.97775        37.31542         0.58977
C         31.78242        37.95253         1.29895
C         32.90445        40.18766         0.99203
C         31.70150        39.47927         1.13567
C         32.99448        41.60981         0.98400
C         31.84510        42.39262         1.53225
C         33.08481        44.54407         0.93716
C         31.81631        43.85365         1.15590
C         33.13749        45.93431         0.97827
C         31.93805        46.73790         1.40241
C         31.94907        48.17065         0.92953
C         34.37242        21.05224        -0.11985
C         35.55778        23.22247         0.01969
C         34.40345        22.44977        -0.18347
C         35.55930        24.65714        -0.00526
C         34.31231        25.36277        -0.29950
C         35.47606        27.53432        -0.17807
C         34.29989        26.71400        -0.48735
C         35.48983        28.94408        -0.63639
C         34.30375        29.61602        -0.75822
C         35.45860        31.79036        -1.22846
C         34.23133        31.05179        -0.89104
C         35.41996        33.29453        -1.13102
C         34.18902        33.93980        -0.61217
C         35.41445        36.03913        -0.14329
C         34.18986        35.31259        -0.21097
C         35.42205        37.37504         0.26970
C         34.19154        38.01155         0.61081
C         35.49737        40.21088         0.78994
C         34.19342        39.43949         0.98785
C         35.41675        41.63267         0.51602
C         34.21791        42.32596         0.73186
C         34.23369        43.75323         0.68415
C         36.75600        25.37008         0.08890
C         38.03698        27.62064        -0.02556
C         36.78842        26.83324         0.13487
C         38.03531        28.94009        -0.39745
C         36.79036        29.60208        -0.87184
C         38.01353        31.86310        -0.91081
C         36.78197        31.07535        -1.17647
C         38.00381        33.23149        -0.94444
C         36.73723        34.01057        -1.05224
C         37.95146        36.02451        -0.00949
C         36.70486        35.41484        -0.53460
C         37.93538        37.34089         0.30369
C         36.69308        38.10366         0.32711
C         36.71567        39.46129         0.45666
C         39.23468        29.74815        -0.42114
C         40.47570        31.86568        -0.54499
C         39.23753        31.10820        -0.64740
C         40.50674        33.20743        -0.65094
C         39.28361        34.04845        -0.89432
C         39.16327        35.14311         0.19580
O         36.93801        30.10160        -2.25709
O         35.26427        32.62375        -2.42335
O         17.29237        42.98676         0.95649
O         16.17949        25.12275        -1.97182
O         28.30725        42.08778         2.34402
O         15.63081        19.22431        -1.99919
O         22.76260        54.78184         2.75753
O         20.94671        54.70571        -0.38621
O         35.00047        39.79851         2.14487
O         21.46510        52.60309         2.50476
O         23.48743        58.32421         2.87708
O         22.72478        39.85356        -2.40344
O         25.13095        17.75387        -1.57578
O         17.83202        26.63215         1.06115
O         32.59991        23.86343         0.71723
O         28.77217        48.52047         2.28404
O         21.41690        30.23798        -2.90228
O         36.79822        35.14433        -1.99886
O         25.08355        10.08021         3.37586
O         13.79843        40.04565        -2.03466
O         27.54058        52.92310        -0.75911
O         24.22575        17.65308         1.97205
O         28.29235        23.75879        -3.12166
O         25.76085        37.32327         1.53356
O         23.62899        20.15304        -2.51028
O         22.39408        26.83774        -2.85639
O         10.05600        31.49440         1.99081
O         26.42279        40.83492        -1.40475
O         29.93001        29.13439         0.40028
O         29.57938        37.30931         2.20774
O         20.79626        29.32155         0.46428
O         16.43068        22.73113         0.75997
O         35.92427        27.39919         1.22019
O         18.72802        42.32463        -2.25969
O         23.10414        36.80490        -2.14744
O         20.07946        18.05425        -1.91469
O         27.01941        13.78530         3.11267
O         23.74802        31.48202        -3.18993
O         30.33400        22.43025        -2.82313
O         25.00960        43.36047        -1.93586
O         11.85383        34.25964        -1.61629
O         26.24220        22.24021        -3.09645
O         20.90669        36.74632         0.82771
O         23.54305        14.93961        -0.35535
O         25.05261        32.65608         0.36310
H         25.81142        32.33718         0.89644
O         32.05369        37.74159         2.72807
H         31.75876        36.83533         2.96197
O         30.48075        39.98350         3.10818
H         30.75225        39.04345         3.26737
O         17.89807        46.58950        -1.78174
H         18.64299        46.40490        -2.39229
O         13.14969        37.42614        -2.43112
H         13.25479        38.36826        -2.71507
O         26.01590        53.26571         2.49615
H         25.18742        53.57548         2.92158
O         13.83220        20.59510         1.42190
H         13.17163        20.29221         2.07941
O         23.08761        12.25588         3.82324
H         23.37126        13.18819         4.01200
O         13.74944        20.91686        -2.22574
H         14.12345        20.11420        -2.66175
O         29.51932        31.06002        -2.64330
H         28.66002        31.32117        -3.04701
O         22.15550        21.35898         0.61300
H         21.30174        21.66870         0.98313
O         21.97423        46.80979         1.74333
H         21.81434        45.90528         2.08376
O         14.13325        27.12529        -1.72718
H         14.73791        26.58430        -2.28811
O         25.50187        27.36190        -3.46399
H         25.49678        26.41941        -3.77713
O         23.20018        50.69590        -1.34798
H         24.09599        50.58966        -1.73485
O         39.46790        34.71490        -2.16250
H         38.57840        35.03075        -2.46134
O         21.66514        21.91622        -2.99024
H         21.60474        22.75972        -3.49328
O         24.75490        34.28042        -2.90592
H         24.12240        34.97399        -3.19789
O         22.06180        25.23263         0.41900
H         22.02360        24.31215         0.75582
O         25.84670        39.76640         2.00592
H         25.65903        38.90487         2.44880
O         39.01880        34.47595         1.45841
H         38.97171        35.15207         2.16499
O         32.73059        28.74457         0.82900
H         33.46253        28.25710         1.26455
O         32.11487        42.38773         2.99323
H         31.80802        41.51306         3.33761
O         31.95487        29.59243        -2.65469
H         31.21174        30.14464        -3.00431
O         14.82590        29.59069         2.12756
H         14.09907        30.15522         2.50502
O         20.66472        24.63356        -2.93876
H         19.77171        24.37612        -3.25194
O         32.80292        22.13099        -2.50029
H         32.11728        21.89017        -3.16746
O         23.31150        45.20614        -2.21752
H         23.78477        44.51378        -2.73920
O         25.60673        24.65746        -3.69369
H         26.29749        24.04507        -4.04924
O         14.42885        43.89375        -1.93221
H         14.38708        44.81724        -2.25744
O         26.24083        32.14251        -3.08961
H         25.44890        32.31772        -3.65463
O         25.51860        54.65586        -0.89165
H         26.27202        54.16447        -1.30163
O         24.39842         8.80012         0.02273
H         24.37757         7.93966        -0.44704
O         24.61829        26.76526         0.05472
H         23.83775        26.33647         0.48038
O         21.99871        48.22921        -1.63087
H         22.20921        49.15587        -1.90434
O         27.67657        35.49575         1.85162
H         26.83144        35.94009         2.09966
O         17.56202        46.19772         1.82892
H         16.88437        46.50681         2.46544
O         18.24826        36.03623         1.59020
H         19.13402        36.34981         1.88272
O         14.66886        42.47145         1.44303
H         15.60480        42.72484         1.65510
O         33.54776        27.48889        -2.55545
H         33.00247        28.18574        -2.99693
O         20.40967        12.21114         3.61557
H         21.30965        12.10497         4.02584
O         30.48432        32.70611         1.49902
H         30.95312        31.85842         1.65666
O          6.71410        33.81290         1.96606
H          6.79048        32.87134         2.23248
O         24.14079        14.76507         3.27252
H         25.01393        14.87801         3.70973
O         28.47198        45.85062        -1.12211
H         27.71628        45.34137        -1.48896
O         28.26149        37.60430        -1.13738
H         27.61951        37.09819        -1.68008
O         21.76514        60.28526         2.92235
H         22.17419        59.64279         3.54814
O         12.52778        31.05846         2.36009
H         11.66730        30.97604         2.83948
O         31.97824        46.81356         2.87299
H         31.14042        47.23206         3.16803
O         18.56995        29.00297         1.66023
H         18.10587        28.23789         2.07361
O         13.68379        27.07079         1.92902
H         14.25013        27.80811         2.27263
H          5.09400        31.28416        -0.76004
H          5.02166        33.72662        -0.43663
H          7.42717        26.98542        -0.23692
H          6.24776        29.11428        -0.31234
H          6.20167        35.92995         0.27754
H          7.43775        38.00503         0.19601
H          9.80026        22.66349        -0.13942
H          8.61448        24.82056        -0.17937
H          8.68156        40.11288         0.29226
H          9.91431        42.24225         0.26712
H         12.30606        18.31398         0.29381
H         11.03486        20.49452         0.10110
H         11.20353        44.37861         0.54759
H         12.43822        46.52941         0.62515
H         14.77552        14.12429         0.78664
H         13.53204        16.16212         0.38517
H         13.70076        48.65028         0.75352
H         14.91658        50.76410         0.88582
H         17.26855         9.99939         1.86086
H         16.00894        12.06415         1.33520
H         16.12696        52.90925         1.10460
H         17.34227        55.05469         1.31552
H         19.78219         5.76756         1.99368
H         18.52975         7.88595         1.96216
H         18.59180        57.23026         1.53087
H         19.75866        59.32701         1.35119
H         23.23574         2.42933         1.95443
H         21.05574         3.62343         2.01195
H         23.01000        62.31181        -0.51097
H         20.94781        61.34221         0.41316
H         25.37748         3.69096         1.84672
H         26.60853         5.82051         1.88135
H         26.61923        59.43741         0.69610
H         25.23590        61.29916        -0.09587
H         27.85906         7.95656         1.69672
H         29.06564        10.09417         1.48039
H         29.19535        55.22268         1.02558
H         27.93743        57.38120         0.99531
H         30.31430        12.19917         1.50562
H         31.57895        14.30712         1.28363
H         31.67497        50.85095         0.63910
H         30.50299        52.97616         0.78410
H         32.81638        16.39799         0.86265
H         34.04252        18.46261         0.46284
H         34.09801        46.44818         0.81945
H         32.91499        48.69288         0.84677
H         35.29230        20.49567         0.11543
H         36.51364        22.70678         0.20060
H         36.31569        42.16879         0.17837
H         35.19538        44.25526         0.50022
H         37.70916        24.81998         0.11050
H         38.98924        27.13760         0.24429
H         38.85689        37.84926         0.62798
H         37.67097        40.00615         0.41687
H         40.18744        29.25371        -0.17609
H         41.40496        31.30227        -0.37001
H         41.46554        33.74329        -0.58345
H         40.09502        35.77465         0.20528
