         204
 CSIRO Nanostructure Databank - Neutral Graphene Oxide Data Set
C        -11.09105         0.62919        -0.20968
C         -9.86407         1.40538        -0.17967
C         -8.59373         0.70691        -0.13049
C         -7.41523         1.38219         0.12508
C         -6.16154         0.67721         0.24554
C         -4.92360         1.41587         0.32959
C         -3.69342         0.71814         0.41527
C         -2.40915         1.47498         0.61119
C         -1.17372         0.72904         0.13002
C          0.02750         1.41917        -0.07013
C          1.22771         0.73326        -0.41882
C          2.48186         1.47302        -0.51482
C          3.70810         0.79414        -0.65433
C          4.94782         1.47230        -0.46169
C          6.18796         0.73922        -0.38021
C          7.40233         1.43916        -0.09441
C          8.61196         0.70714         0.06747
C          9.83676         1.41690         0.34074
C         11.04401         0.64991         0.53149
C         -9.88996         2.79348        -0.13263
C         -8.69523         3.56918         0.00708
C         -7.43747         2.85246         0.45946
C         -6.16144         3.52777         0.02734
C         -4.95816         2.85015         0.09607
C         -3.68361         3.55897        -0.06922
C         -2.49320         2.88539         0.09177
C         -1.22512         3.63823         0.06783
C          0.05976         2.89163         0.03034
C          1.28592         3.63454        -0.32829
C          2.50152         2.89815        -0.39247
C          3.73587         3.60461        -0.34358
C          4.96148         2.88153        -0.29938
C          6.19301         3.58854        -0.09337
C          7.40872         2.86101         0.02373
C          8.63513         3.56325         0.27716
C          9.83641         2.80727         0.42649
C         -8.70276         4.95025        -0.08547
C         -7.48553         5.71719        -0.12178
C         -6.23805         4.95364        -0.32581
C         -4.93601         5.73856        -0.35607
C         -3.66885         5.00697        -0.19475
C         -2.49272         5.74030        -0.24718
C         -1.23209         4.99857        -0.57844
C          0.03242         5.77720        -0.36687
C          1.27719         5.03248        -0.38279
C          2.51765         5.75397        -0.33219
C          3.73952         5.02831        -0.24535
C          4.96598         5.73109        -0.06045
C          6.19227         5.00400         0.03409
C          7.42012         5.70794         0.27270
C          8.62089         4.96966         0.38763
C         -7.43908         7.10344        -0.13126
C         -6.19773         7.83924        -0.07183
C         -4.98265         7.16514        -0.07490
C         -3.71803         7.84920         0.36951
C         -2.46685         7.16095        -0.11832
C         -1.26047         7.86399        -0.19119
C         -0.00448         7.15055        -0.34614
C          1.26073         7.93738        -0.57314
C          2.51720         7.16620        -0.25551
C          3.71969         7.86082        -0.01334
C          4.95188         7.14409         0.08288
C          6.18330         7.84291         0.32549
C          7.38435         7.12616         0.40934
C         -6.17248         9.28585         0.04414
C         -4.99477         9.98995         0.07657
C         -3.71564         9.33394         0.10879
C         -2.50234         9.99835         0.06402
C         -1.24672         9.30074        -0.00244
C         -0.01623         9.97851         0.12823
C          1.23009         9.32892         0.01222
C          2.45642         9.97317         0.25812
C          3.69269         9.29026         0.20400
C          4.93590         9.95523         0.44805
C          6.12739         9.27093         0.49180
C        -11.11429        -0.72739        -0.22102
C         -9.88406        -1.53034        -0.36953
C         -8.54744        -0.74790        -0.35269
C         -7.34523        -1.47338         0.08641
C         -6.15791        -0.72404         0.32862
C         -4.90824        -1.40984         0.82470
C         -3.64522        -0.68545         0.45820
C         -2.42740        -1.40854         0.27291
C         -1.19920        -0.68953         0.04631
C         -0.00136        -1.40113        -0.26435
C          1.19375        -0.67222        -0.52087
C          2.39032        -1.39760        -0.97476
C          3.70534        -0.61803        -1.07403
C          5.01208        -1.35627        -1.06142
C          6.21025        -0.66328        -0.54394
C          7.39643        -1.40671        -0.32572
C          8.60160        -0.71021        -0.00730
C          9.81389        -1.44625         0.23979
C         11.03026        -0.71347         0.49287
C         -9.83648        -2.93422         0.01336
C         -8.62668        -3.60584         0.17798
C         -7.39300        -2.86344         0.25211
C         -6.17032        -3.56698         0.69005
C         -4.86758        -2.87981         0.54402
C         -3.66995        -3.56123         0.39374
C         -2.42386        -2.83193         0.20838
C         -1.21780        -3.54378        -0.07633
C         -0.00571        -2.83778        -0.31926
C          1.22050        -3.55841        -0.59227
C          2.40387        -2.86780        -0.88109
C          3.66519        -3.58204        -1.15851
C          4.99447        -2.86570        -1.08926
C          6.18576        -3.57874        -0.56774
C          7.37324        -2.85262        -0.32193
C          8.57420        -3.55893         0.04070
C          9.78108        -2.83749         0.26608
C         -8.60198        -5.05448         0.28992
C         -7.44467        -5.77995         0.45906
C         -6.19198        -5.05528         0.78968
C         -4.87657        -5.76833         0.70804
C         -3.64851        -5.01238         0.32355
C         -2.48948        -5.68968         0.00105
C         -1.23921        -4.98648        -0.16379
C         -0.03752        -5.70693        -0.32706
C          1.20909        -5.01195        -0.50103
C          2.40976        -5.73595        -0.53367
C          3.67642        -5.07612        -0.88571
C          4.93576        -5.72932        -0.48079
C          6.14306        -4.98737        -0.34993
C          7.34218        -5.67789         0.04734
C          8.53853        -4.95916         0.19423
C         -7.40690        -7.22259         0.37132
C         -6.23131        -7.93773         0.39260
C         -4.92550        -7.24606         0.52145
C         -3.71569        -7.93553         0.06933
C         -2.53073        -7.14809        -0.40339
C         -1.23698        -7.87953        -0.20130
C         -0.02870        -7.16203        -0.26448
C          1.20589        -7.86917        -0.24605
C          2.44007        -7.15960        -0.35166
C          3.67769        -7.84064        -0.29059
C          4.90181        -7.11438        -0.20638
C          6.11086        -7.79317         0.19726
C          7.29009        -7.08237         0.31034
C         -6.17166        -9.37743         0.26580
C         -4.98414       -10.03801         0.14855
C         -3.71464        -9.33480         0.01745
C         -2.48730       -10.02402        -0.12106
C         -1.24787        -9.31311        -0.12723
C         -0.02487       -10.00286        -0.04437
C          1.21770        -9.31113        -0.10742
C          2.42760       -10.00334        -0.05351
C          3.73033        -9.34347        -0.38276
C          4.91476        -9.92731         0.34312
C          6.02973        -9.20285         0.55769
O         -5.60408         5.31170        -1.60481
O         -6.31809        -4.24060         2.00651
O          5.28373        -2.08717        -2.29887
O         -2.26080         1.58656         2.06908
H         -1.53844         2.24679         2.22250
O         -7.44957         2.94083         1.93012
H         -8.21070         2.41213         2.25056
O          1.29893         8.14725        -2.04109
H          2.10648         8.66992        -2.23482
O         -3.69269         7.70601         1.84361
H         -2.90158         8.18846         2.16646
O         -4.99883        -1.30420         2.30097
H         -4.25781        -1.82261         2.68124
O         -9.13139        -1.21736        -1.59979
O          3.63687        -4.53845        -2.26414
O         -4.67429        -6.63835         1.87818
O          3.95995        -9.65485        -1.82056
H          3.26532        -9.18550        -2.33074
O         -1.28608         4.70855        -2.01799
H         -1.29203         5.56517        -2.49590
O         -2.71762        -7.07737        -1.88781
H         -2.56526        -7.98165        -2.23855
O         -0.47351         3.46818         1.31822
O          2.90924        -0.87617        -2.26129
H         11.95693        -1.28242         0.65898
H         11.98195         1.19003         0.72781
H         10.77852         3.33819         0.63051
H          9.56413         5.50293         0.57949
H          8.32412         7.66694         0.59800
H          7.06481         9.81525         0.67881
H          4.92577        11.04396         0.60663
H          2.45231        11.03379         0.55563
H         -0.03139        11.05222         0.37520
H         -2.48725        11.09967         0.03902
H         -5.01754        11.09041         0.05674
H         -7.13022         9.82679         0.03095
H         -8.37960         7.67120        -0.05882
H         -9.66023         5.47948        -0.21704
H        -10.84899         3.31971        -0.25961
H        -12.03847         1.18514        -0.14010
H        -12.07243        -1.26165        -0.13172
H        -10.78306        -3.46819         0.18733
H         -9.54965        -5.58981         0.12418
H         -8.36159        -7.75710         0.24690
H         -7.11622        -9.94149         0.28236
H         -4.97206       -11.13621         0.08670
H         -2.47426       -11.12333        -0.11229
H         -0.02413       -11.09974         0.03774
H          2.41379       -11.10053         0.03528
H          4.87710       -10.99127         0.62128
H          6.91106        -9.66168         1.03170
H          8.20968        -7.59376         0.63221
H          9.45836        -5.49301         0.47577
H         10.69866        -3.39938         0.49665
