         280
 CSIRO Nanostructure Databank - Neutral Graphene Oxide Data Set
C         30.29913        31.88618         0.64427
C         30.32386        33.12495         0.61160
C         30.51764        35.91847        -0.88962
C         30.55807        37.09685        -1.23585
C         30.71220        40.30182        -1.80373
C         30.48703        41.48962        -2.20243
C         32.63745        29.00527         0.91835
C         31.51754        29.59839         0.91548
C         32.68836        31.67331         0.54732
C         31.39181        30.97002         0.68906
C         32.72950        33.08239         0.54093
C         31.51015        34.02404         0.57301
C         32.90824        35.78328        -0.56632
C         31.61447        34.91770        -0.68322
C         32.97228        37.19363        -1.05556
C         31.72144        37.96345        -1.48170
C         32.87778        40.11326        -0.87499
C         31.71851        39.43353        -1.38289
C         32.87634        41.54370        -0.64575
C         31.06499        42.60482        -1.55350
C         32.76129        44.13077        -1.44101
C         31.68150        43.77763        -2.04321
C         35.45124        27.61298         1.72142
C         35.20618        28.67663         0.67663
C         33.94007        29.49400         0.73744
C         35.17070        31.58332         0.08451
C         33.91526        30.88572         0.49423
C         35.22289        33.06885         0.17310
C         34.02301        33.85178         0.65658
C         35.32597        35.90434        -0.05373
C         34.02854        35.20552        -0.05037
C         35.33568        37.31434        -0.30247
C         34.15448        37.99583        -0.65201
C         35.20894        40.22051         0.02357
C         34.09211        39.40677        -0.62252
C         35.38339        41.59352        -0.69066
C         34.04485        42.32762        -0.71210
C         35.09026        44.65986        -0.48213
C         34.01082        43.73034        -0.98860
C         35.58725        45.76384        -1.37496
C         37.88516        27.66965         2.01127
C         36.53280        27.09764         2.04126
C         37.79317        29.03385         1.32766
C         36.42949        29.69217         1.06500
C         37.76987        31.61986         0.04390
C         36.47858        30.78854        -0.00790
C         37.69619        33.07626        -0.37534
C         36.56074        33.73930         0.43155
C         37.79543        35.94543         0.53709
C         36.50690        35.23029         0.21802
C         37.85747        37.38191         0.05581
C         36.62790        38.06863        -0.48389
C         37.84342        40.25121         0.09254
C         36.55673        39.48983         0.06783
C         37.83472        41.73452         0.05013
C         36.49214        42.41026        -0.02396
C         37.70761        44.68003         0.06602
C         36.39617        43.91410        -0.03857
C         37.86519        46.07869        -0.50912
C         36.61297        46.41319        -1.12152
C         40.28504        24.76903         1.48030
C         39.28517        25.43082         1.80716
C         40.42992        27.51374         1.36291
C         39.16763        26.88238         1.96552
C         40.27700        28.82283         0.62053
C         38.96488        29.53363         0.52933
C         40.21363        31.53954        -0.51064
C         38.95751        30.97585         0.14412
C         40.25878        33.08057        -0.52911
C         39.00837        33.82571        -0.19314
C         40.26478        35.95853         0.02667
C         39.01808        35.16029         0.06726
C         40.24099        37.35292         0.57865
C         39.01263        38.08036         0.17385
C         40.39591        40.24623         0.21785
C         39.13362        39.52057        -0.28996
C         40.38754        41.75116        -0.06541
C         39.01049        42.41401         0.13075
C         40.27751        44.59799        -0.11126
C         38.97997        43.89301         0.21927
C         40.24655        46.10174         0.27393
C         39.03158        46.77518        -0.39161
C         40.36224        48.84617        -0.42378
C         39.34062        48.16035        -0.63524
C         42.66930        24.64188         0.35324
C         41.51030        25.23151         0.88378
C         42.73623        27.35572         0.45638
C         41.57749        26.66934         0.89280
C         42.76992        28.84083         0.60821
C         41.51786        29.59470         0.33806
C         42.82194        31.57816        -0.46715
C         41.51747        30.89627        -0.04907
C         42.84494        33.08105        -0.26130
C         41.57712        33.81460        -0.46285
C         42.82445        35.97865         0.22685
C         41.57787        35.29246        -0.19989
C         42.80830        37.32742         0.51544
C         41.53287        38.08559         0.70095
C         42.78023        40.28609         1.12628
C         41.52922        39.58141         0.57703
C         42.87370        41.75512         0.65922
C         41.53475        42.53133         0.60793
C         42.40385        44.82373         1.16606
C         41.41429        43.90029         0.62422
C         42.69400        46.05461         0.64583
C         41.59674        46.73005        -0.09772
C         42.88303        48.76155         0.42383
C         41.44763        48.56690         0.53233
C         43.64720        25.32030        -0.08762
C         45.01108        27.54358        -0.63748
C         43.87525        26.69936        -0.09013
C         45.33269        28.68067         0.43449
C         44.07380        29.53836         0.52960
C         45.28983        31.58526        -0.03738
C         44.08711        30.94041         0.07379
C         45.30780        33.04626        -0.14179
C         44.02772        33.76906        -0.14503
C         45.26397        35.89401         0.08423
C         44.06212        35.22736         0.07092
C         45.35361        37.33274         0.40383
C         44.06924        38.06635         0.68900
C         45.29877        40.19713         0.69617
C         44.09292        39.55223         0.71985
C         45.34311        41.50690         1.45879
C         44.13483        42.40137         1.22342
C         45.45871        44.49900         1.65842
C         44.25011        43.65936         1.71852
C         45.29077        46.00416         1.31791
C         44.10002        46.67413         0.60285
C         43.92315        48.16540         0.80292
C         47.46609        27.48052        -0.80353
C         46.35667        26.94353        -0.86203
C         47.90224        28.67123         0.04394
C         46.58797        29.47934         0.09686
C         47.74632        31.60913        -0.61204
C         46.55158        30.82421        -0.09415
C         47.78827        32.96905         0.08670
C         46.49432        33.72088        -0.10606
C         47.78026        35.90690         0.13439
C         46.51814        35.20135        -0.36421
C         47.81410        37.28064         0.02477
C         46.53278        38.08698        -0.21420
C         47.86936        39.96378         1.13768
C         46.62568        39.62149         0.20364
C         47.98393        41.51232         1.36564
C         46.69203        42.27229         1.44961
C         47.99378        44.44663         1.09198
C         46.65322        43.73345         1.03022
C         47.70664        45.84917         0.96012
C         46.62138        46.43443         0.79262
C         50.35137        28.98122        -0.73031
C         49.07470        29.46507        -0.45495
C         50.25370        31.62145        -0.81293
C         49.07890        30.88605        -0.51868
C         50.33445        33.14875        -0.61748
C         49.02124        33.79473        -0.21263
C         50.04657        36.26714        -1.71898
C         48.99523        35.08977         0.29505
C         50.16376        37.53015        -1.03177
C         49.09825        38.01883        -0.09315
C         50.28679        40.24340        -0.04844
C         49.16591        39.38957         0.49602
C         50.36277        41.71008         0.27332
C         49.34832        42.25571         1.28605
C         50.49450        44.33110         0.96141
C         49.18341        43.79490         1.14886
C         51.41697        29.55041        -1.12470
C         52.35376        31.87551        -1.87561
C         51.46103        30.95159        -1.21799
C         52.18409        33.05690        -2.20031
C         50.91942        33.86376        -1.99895
C         52.30776        36.02537        -1.48060
C         51.13569        35.34551        -1.83808
C         52.51727        37.23245        -1.17161
C         51.45903        38.10498        -0.81166
C         52.59419        40.35984        -0.47760
C         51.54467        39.48239        -0.42070
C         52.72736        41.61726        -0.23982
C         51.71292        42.43655         0.18313
C         51.55971        43.79644         0.58685
O         39.39165        28.63456        -0.54702
O         43.15662        44.34663         2.22303
O         45.47313        45.55640         2.66727
O         43.41530        29.35073         1.84818
O         47.00630        40.37523        -1.03179
O         40.19269        27.47443         2.79875
O         40.90878        36.01229        -1.30006
O         32.59230        37.38393        -2.48340
O         44.97596        37.58955         1.78264
O         40.93369        33.52168        -1.75256
O         38.29932        44.46952         1.38677
O         37.24605        39.70402         1.32681
O         49.82251        41.26367        -1.00338
O         47.43312        41.95693         2.65016
O         36.10524        43.14407         1.17187
O         49.70162        38.29120         1.29474
O         40.79255        37.58947         1.90419
O         31.66963        42.15897        -0.28472
O         38.03794        28.89474         2.76574
O         35.00220        32.43718        -1.10878
O         48.90874        35.93919        -2.36728
H         48.20047        36.59830        -2.21444
O         35.83115        41.37403        -2.04012
H         35.28087        40.67674        -2.45585
O         36.00951        30.33772         2.26860
H         36.45448        29.87759         3.02114
O         47.64591        39.33772         2.39150
H         48.42250        38.76072         2.58783
O         40.16336        46.22515         1.69724
H         39.33994        45.76962         2.00257
O         46.27937        43.66745        -0.39024
H         46.35150        44.57702        -0.76185
O         47.50352        31.83196        -2.02025
H         48.24253        32.37591        -2.38081
O         36.88882        33.48476         1.83144
H         36.06583        33.66084         2.35133
O         42.63549        40.28590         2.54798
H         42.54292        39.36241         2.86220
O         31.72741        34.07048        -1.80575
H         31.76420        34.61930        -2.61680
O         36.77953        38.23071        -1.92602
H         36.80850        37.34129        -2.33727
O         40.05587        31.13408        -1.89734
H         40.91317        31.33126        -2.34697
O         49.99215        42.00718         2.54700
H         49.34077        42.19643         3.25965
O         35.30229        28.10747        -0.59532
H         36.15547        27.64010        -0.70020
O         37.90801        36.00036         1.98855
H         37.72988        35.08441         2.31753
O         43.18495        41.64113        -0.78292
H         43.48734        42.51890        -1.10176
O         47.88076        32.64496         1.51374
H         47.91477        33.48014         2.02602
O         31.57735        34.88133         1.72175
H         31.11450        34.44452         2.46690
O         45.84812        41.09400        -1.54191
H         46.04901        42.03996        -1.29065
O         48.22681        28.22696         1.34614
H         47.40805        27.84814         1.74869
O         36.51805        30.18409        -1.30982
H         36.30663        30.89380        -1.95777
O         42.87001        31.35364        -1.91965
H         43.67209        31.79649        -2.27269
O         51.34711        33.39306         0.36208
H         51.06401        32.99728         1.21127
O         37.39673        33.14238        -1.78293
H         38.14718        32.72778        -2.26355
O         34.23196        34.13663         2.07524
H         33.45141        34.66797         2.36714
O         44.55157        28.20007        -1.81914
H         44.52361        27.55261        -2.55349
O         50.10878        35.58739         0.88275
H         49.99567        36.50324         1.21247
O         45.54294        28.00833         1.68641
H         44.81687        28.29382         2.29711
O         40.50605        44.52329        -1.52492
H         40.48999        43.56617        -1.79328
O         40.61886        41.84380        -1.51223
H         41.54701        41.53230        -1.66211
O         39.20139        39.53209        -1.73196
H         39.91517        38.92807        -2.02278
O         46.50022        35.31580        -1.82611
H         46.14830        36.21052        -2.05445
O         46.27347        38.04772        -1.64462
H         46.47656        38.94793        -2.00642
O         34.78223        40.47763         1.37131
H         35.59032        40.49327         1.93725
O         34.54652        45.27006         0.68849
H         34.66009        44.64086         1.43520
O         49.97557        33.55597        -3.00495
H         50.20520        34.02962        -3.83040
O         41.80200        46.85843        -1.45795
H         42.77318        46.89239        -1.62244
O         45.15683        41.08761         2.83643
H         45.93369        40.53839         3.09240
O         40.99468        48.70714         1.81635
H         41.72371        48.56867         2.45293
O         44.48659        46.51030        -0.80521
H         45.12444        47.22844        -1.01436
