         294
 CSIRO Nanostructure Databank - Neutral Graphene Oxide Data Set
C          1.10975         2.21707         0.63056
C          1.09558         3.62095         0.59412
C          2.27806         1.47970         0.56690
C          2.25440         4.36153         0.09424
C          1.20823         6.63706         0.26481
C          1.26694         8.05505         0.39944
C          2.33007         5.84362         0.16914
C          2.45582         8.73949         0.68881
C          1.36765        10.93700         1.28250
C          1.45211        12.28180         1.55990
C          2.50621        10.12450         0.98648
C          2.67090        13.06510         1.26742
C          1.25917        15.17521         0.49778
C          1.21556        16.46893         0.13241
C          2.57710        14.57669         0.95184
C          2.47799        17.31598         0.08511
C          2.41533        18.58577        -0.73562
C          3.59320         2.19381         0.66265
C          3.52629         3.53669        -0.06716
C          4.80383         1.37554         0.27175
C          4.84045         4.25628        -0.13312
C          3.67202         6.56351         0.07379
C          3.65921         7.83372         0.98943
C          4.86231         5.65471         0.46813
C          5.05250         8.55319         1.02681
C          3.86403        10.75629         1.23137
C          3.90026        12.27243         0.93310
C          4.92557         9.98655         0.43137
C          4.83267        12.78229        -0.16776
C          3.65746        15.00075        -0.04466
C          3.60112        16.43667        -0.47151
C          4.93383        14.28776        -0.16958
C          4.87384        17.08625        -0.84686
C          3.56419        19.19921        -1.08671
C          4.86978        18.55863        -0.89125
C          6.04010         1.98317         0.13890
C          6.08755         3.47535         0.05502
C          7.28849         1.30410         0.05444
C          7.28970         4.07886         0.77901
C          6.20149         6.34405         0.12951
C          6.21326         7.82299         0.39405
C          7.37725         5.66822         0.84989
C          7.38499         8.45558         0.08041
C          6.30238        10.71491         0.41105
C          6.20266        12.12261        -0.16129
C          7.33797         9.89343        -0.37666
C          7.30773        12.73752        -0.66174
C          5.87507        14.84904        -1.21828
C          5.98893        16.35687        -1.13009
C          7.23510        14.11456        -1.26221
C          7.21906        17.15012        -1.56408
C          6.06006        19.20228        -0.78244
C          7.28791        18.33866        -0.57913
C          8.54784         1.97076         0.11739
C          8.58168         3.49185         0.16439
C          9.74534         1.28969        -0.01337
C          9.80224         4.14474         0.87702
C          8.66114         6.29022         0.31669
C          8.62835         7.70524        -0.06604
C          9.83865         5.59184         0.40211
C          9.79279         8.37635        -0.42396
C          8.67254        10.57000        -0.48630
C          8.63929        12.04921        -0.60279
C          9.82540         9.82296        -0.64170
C          9.87838        12.72715        -1.09789
C          8.51010        14.85548        -1.59934
C          8.55487        16.37270        -1.64017
C          9.86625        14.13663        -1.67068
C          9.85986        17.08937        -1.36378
C          8.59366        19.07464        -0.55645
C          9.80204        18.47886        -0.76420
C         11.05968         1.93309         0.22450
C         11.10305         3.35949         0.66764
C         12.29569         1.26271        -0.35621
C         12.39844         4.16431         0.70928
C         11.08345         6.21420         0.00806
C         11.04662         7.59444        -0.55498
C         12.26782         5.54996         0.09737
C         12.34231         8.34297        -0.73340
C         11.10448        10.49376        -0.91967
C         11.03803        11.85782        -1.59600
C         12.28873         9.81620        -0.86020
C         12.37500        12.72868        -1.64190
C         11.06677        14.88717        -1.14974
C         11.10963        16.26167        -1.21098
C         12.31430        14.05825        -0.87243
C         12.39565        16.85054        -1.45148
C         10.95779        19.14299        -0.15488
C         12.27177        18.91349        -0.44044
C         13.59948         2.01357        -0.14033
C         13.61822         3.39512         0.19430
C         14.81335         1.37324        -0.36956
C         14.83289         4.08573         0.23366
C         13.54890         6.16301        -0.41713
C         13.62972         7.66747        -0.45023
C         14.58663         5.53745         0.53096
C         14.83965         8.34534        -0.46788
C         13.59442        10.51227        -0.96661
C         13.64360        11.98158        -1.21051
C         14.79671         9.83634        -0.37404
C         14.83870        12.74068        -0.71747
C         13.62938        14.79160        -1.12886
C         13.56950        16.11826        -1.59847
C         14.80401        14.19675        -0.62304
C         14.49190        17.05364         0.59811
C         13.43403        19.34983         0.31390
C         14.55226        18.55649         0.59330
C         16.06720         2.05188        -0.29095
C         16.09139         3.45976        -0.02334
C         17.29379         1.35990        -0.48584
C         17.35639         4.14758        -0.01404
C         16.35882         6.35546        -0.54639
C         16.12200         7.70819        -0.27626
C         17.41904         5.64290         0.25296
C         17.36312         8.49231         0.20298
C         16.07719        10.61122        -0.34197
C         16.03059        12.07702        -0.57406
C         17.33650         9.79758        -0.63898
C         17.26075        12.95284        -0.48130
C         15.84855        14.91915         0.10477
C         15.74741        16.24509         0.52164
C         17.02198        14.01783         0.61612
C         16.82402        16.87332         1.40033
C         15.74037        19.14588         1.09813
C         16.88875        18.39553         1.36957
C         18.51915         2.02304        -0.42428
C         18.53768         3.43786        -0.20370
C         19.77694         1.31763        -0.63776
C         19.85083         4.13327        -0.10371
C         18.69004         6.37232        -0.11368
C         18.66127         7.72350        -0.09173
C         19.89659         5.59300        -0.44121
C         19.95551         8.49068         0.05926
C         18.62505        10.63883        -0.64437
C         18.57050        12.13959        -0.50007
C         19.96633         9.86974        -0.66401
C         19.84558        12.95421        -0.27334
C         18.31413        14.77268         0.96103
C         18.21327        16.23060         1.27689
C         19.68073        14.06285         0.80277
C         19.36930        17.16835         0.91797
C         18.05261        19.03599         1.83784
C         19.31773        18.40757         1.78816
C         20.98815         1.92250        -0.58281
C         21.12392         3.35477        -0.24706
C         22.37863         4.10380        -0.53424
C         21.21598         6.30024        -0.59812
C         21.22967         7.75419        -0.34017
C         22.43798         5.44956        -0.57924
C         22.41022         8.51294        -0.29585
C         21.13687        10.64187        -0.04022
C         21.05816        12.12539         0.20335
C         22.40667         9.88870        -0.09357
C         22.26286        12.95477         0.49703
C         20.88093        15.00538         0.63295
C         20.75270        16.49870         0.83585
C         22.17550        14.27019         0.76651
C         21.91200        17.26326         1.33652
C         20.47030        18.97956         2.30435
C         21.75618        18.40734         2.06187
O         18.36086        15.28057         2.35624
O          7.70801        14.21953        -2.65093
O         20.37590         5.90525        -1.78747
O          3.85818        12.97510         2.20807
O          3.11568        15.41115        -1.37835
O         20.59634         3.73471         1.08942
O         11.65799         7.67928        -1.90383
O         15.33049        10.30230         0.89934
O         14.75029         6.02138         1.65228
O         11.21979         2.27347         1.67080
O          2.70182         3.71388        -1.21360
O         13.97488        11.03078        -2.29968
O          5.69233         3.93732        -1.28748
O         13.39294        16.52819         0.84027
O         18.61445        11.50835        -1.84471
O         20.76817        11.17987         1.27666
O          9.36416        16.91499        -2.74906
O         12.56524        18.22002        -1.64046
O         20.91501        15.91148        -0.51128
O          9.61170        12.70693         0.32192
O         12.07026         1.12852        -1.76602
H         12.90028         0.82613        -2.18782
O         16.38314        16.59215         2.77036
H         15.47565        16.95122         2.86912
O         12.60362        13.10762        -3.00972
H         12.93787        12.30094        -3.46553
O         17.19812         9.31913        -2.00137
H         17.37121        10.07927        -2.59982
O          5.46569         8.57658         2.41483
H          6.26404         9.15709         2.47276
O          4.14171        10.59803         2.64499
H          3.75571        11.39169         3.09097
O          3.76823         2.55077         2.08143
H          4.41747         3.29363         2.14712
O          8.65892         3.92472        -1.21678
H          7.97501         3.44096        -1.72819
O         20.27459         9.58082        -2.03743
H         19.91960        10.31384        -2.58772
O          4.14742        12.42243        -1.39814
H          4.43659        13.06566        -2.09953
O          7.20796        17.73824         0.75964
H          7.05060        18.46081         1.40299
O          3.81470         6.97355        -1.29535
H          4.75520         6.85519        -1.58349
O          9.59851         4.18647         2.31569
H         10.07885         3.40541         2.68317
O         10.71777        11.47875        -2.95197
H         10.63492        12.31659        -3.47014
O          2.85423        15.23781         2.22465
H          3.59636        14.74502         2.64761
O         19.88474        13.37570         2.05150
H         19.54697        13.95013         2.77539
O         12.65013         4.39635         2.12345
H         12.53998         3.52916         2.57371
O         17.33978        13.75287        -1.69163
H         17.43837        13.13644        -2.44903
O         13.61316         5.68026        -1.80099
H         12.87055         6.15873        -2.25262
O          5.25480        14.57098        -2.52365
H          5.95997        14.71471        -3.19846
O          6.86821         9.82727        -1.77195
H          7.43479         9.18195        -2.24749
O          3.34439         7.39851         2.33784
H          3.71162         8.08764         2.94168
O         17.35901         8.79110         1.60454
H         17.22520         7.93121         2.07111
O          7.32005         6.07122         2.22943
H          8.14186         5.75736         2.66604
O          4.80143         5.32377         1.86906
H          4.51884         6.12497         2.38314
O          6.44369         6.33587        -1.30730
H          6.48971         5.39969        -1.62951
O         17.30685         5.89777         1.67606
H         16.39098         5.67698         1.98822
O          2.81773        17.76664         1.41830
H          2.80662        16.96996         2.00828
O         20.08091         8.69614         1.48653
H         19.19603         8.97060         1.83745
O         10.13715        14.05731        -3.10101
H          9.98792        14.95686        -3.47281
O          6.93390        17.64161        -2.88544
H          7.79829        17.77411        -3.33956
O         16.03860         5.71843        -1.68432
H         15.34488         6.20127        -2.19362
O          6.78910        10.81065         1.77116
H          6.06744        11.19894         2.32106
O         19.04008        17.63694        -0.41836
H         19.54633        17.07163        -1.05010
O          7.09385         3.54716         2.09821
H          7.89364         3.76528         2.63324
O         12.30608        13.74222         0.54002
H         12.53197        14.56816         1.02756
O         16.56008        13.36944         1.80302
H         16.68675        14.00354         2.54516
O         14.70044        16.78671        -1.95476
H         14.44291        17.71903        -2.13570
O         20.18708        13.57899        -1.51665
H         19.84766        13.01320        -2.24374
O          4.38674         9.85269        -0.88378
H          5.12411         9.72912        -1.53001
H          0.15294         1.69027         0.76936
H          0.17308         4.16155         0.84965
H          2.24822         0.38174         0.61474
H          0.20963         6.17609         0.20760
H          0.32765         8.61799         0.29258
H          0.38045        10.45423         1.35431
H          0.53839        12.82770         1.83743
H          0.34294        14.56594         0.52180
H          0.25637        16.92625        -0.15789
H          1.44258        19.07078        -0.90986
H          4.72929         0.27726         0.29246
H          3.54472        20.19105        -1.56463
H          7.28833         0.20333         0.03152
H          6.13698        20.29967        -0.78148
H          9.73825         0.20207        -0.18258
H          8.58459        20.06097        -0.06256
H         12.38941         0.23148         0.09927
H         10.73011        19.79867         0.69960
H         14.81759         0.29906        -0.61495
H         13.44312        20.39174         0.67769
H         17.27130         0.27609        -0.67568
H         15.79336        20.24321         1.18032
H         19.71699         0.24617        -0.88201
H         17.98873        20.08796         2.15892
H         21.90070         1.35147        -0.81159
H         23.30671         3.51653        -0.61562
H         23.41387         5.94135        -0.70846
H         23.38065         8.00915        -0.42475
H         23.36227        10.42427         0.00155
H         23.23501        12.44561         0.58150
H         23.08913        14.83845         0.99562
H         22.91844        16.87335         1.13265
H         20.39965        19.90934         2.88667
H         22.64330        18.92786         2.44961
