         294
 CSIRO Nanostructure Databank - Neutral Graphene Oxide Data Set
C          1.52559         2.24423        -1.83209
C          1.58013         3.56982        -2.17428
C          2.69086         1.50814        -1.51945
C          2.88450         4.31260        -2.30549
C          1.66792         6.52581        -2.20084
C          1.68521         7.97884        -2.20612
C          2.78676         5.79224        -1.98123
C          2.74818         8.69780        -1.76736
C          1.36499        10.77563        -1.26349
C          1.20696        12.02495        -0.79585
C          2.68731        10.22622        -1.77772
C          2.36944        12.88578        -0.46813
C          1.07668        15.09703         0.36499
C          1.13999        16.45157         0.46665
C          2.28437        14.22483         0.22787
C          2.34805        17.25311         0.70864
C          2.50333        18.65308         0.32652
C          3.94521         2.15806        -1.40163
C          4.00063         3.63007        -1.53103
C          5.12247         1.45685        -1.20810
C          5.08311         4.29909        -1.05059
C          4.10294         6.54683        -1.88248
C          3.88670         7.89351        -1.14256
C          5.25509         5.76452        -1.20864
C          5.27675         8.62541        -0.99302
C          3.88779        10.87049        -1.06573
C          3.65923        12.12777        -0.25875
C          5.13924        10.10810        -0.71024
C          4.86820        12.85391         0.24896
C          3.45365        14.60211         1.05541
C          3.36022        16.73955         1.46921
C          4.74157        14.23016         0.80144
C          4.67231        17.34157         1.73599
C          3.56247        19.38765         0.73860
C          4.76323        18.86213         1.51892
C          6.41194         2.22884        -1.12241
C          6.14154         3.50131        -0.30511
C          7.57434         1.43207        -0.61318
C          7.38798         4.25724         0.08415
C          6.33700         6.44344        -0.39942
C          6.13732         7.88311         0.08174
C          7.37726         5.61597         0.29136
C          7.40202         8.61171         0.55182
C          6.16922        10.72592         0.13770
C          6.20448        12.20472         0.08765
C          7.23172        10.00962         0.73123
C          7.42407        12.94403         0.52635
C          5.95283        15.06699         1.08746
C          5.92099        16.46668         1.69962
C          7.30008        14.38725         0.92908
C          7.23047        17.29351         1.60330
C          6.00515        19.28261         0.78001
C          7.11521        18.33573         0.44700
C          8.64312         2.04132        -0.00535
C          8.52858         3.42112         0.61614
C          9.87928         1.35321         0.15556
C          9.83375         4.17954         0.60211
C          8.54383         6.31284         0.81161
C          8.38374         7.74536         1.38001
C          9.75532         5.60706         0.81012
C          9.75692         8.36001         1.72884
C          8.17605        10.85296         1.47474
C          8.45507        12.16011         1.23506
C          9.97568         9.64952         2.17495
C          9.70330        12.81016         1.83145
C          8.54701        15.00534         1.43599
C          8.53130        16.46355         1.53692
C          9.74862        14.29013         1.41296
C          9.79187        17.14915         1.01461
C          8.42157        19.05712         0.19904
C          9.64558        18.49858         0.39967
C         11.06283         2.03280         0.49097
C         11.04643         3.48379         0.66641
C         12.28898         1.33258         0.50217
C         12.32057         4.13958         0.89421
C         10.98482         6.23613         1.23906
C         10.86189         7.45037         1.84323
C         12.32259         5.65463         0.85320
C         12.70407         8.64611         1.96569
C         11.20738        10.60281         2.30381
C         11.00130        11.93380         1.43424
C         12.51708         9.97775         1.83835
C         12.30598        12.82830         1.53577
C         10.96283        14.95849         1.02440
C         10.91203        16.29189         0.63204
C         12.19343        14.11386         0.68012
C         12.02696        16.95279        -0.06901
C         10.85435        19.13274        -0.09731
C         11.99304        18.41329        -0.32320
C         13.52712         1.98832         0.68420
C         13.49996         3.42267         0.93123
C         14.74038         1.28555         0.51947
C         14.78623         4.06708         1.29253
C         13.56584         6.36269         1.42930
C         13.76408         7.88565         1.23469
C         14.81150         5.56194         1.53150
C         15.08137         8.51203         1.71477
C         13.69880        10.73908         1.42157
C         13.61352        12.07959         1.19887
C         15.04204        10.07761         1.81451
C         14.91544        12.86975         1.01843
C         13.49775        14.98845         0.78633
C         13.34869        16.27248        -0.02080
C         14.71744        14.20505         0.32279
C         14.61080        17.08897        -0.18599
C         13.18693        19.01650        -0.89316
C         14.39392        18.39952        -0.90958
C         16.01986         1.92111         0.52828
C         16.06319         3.32188         1.01339
C         17.20856         1.27298         0.25858
C         17.35608         4.05827         1.05278
C         16.12241         6.24604         1.13141
C         16.33190         7.70180         1.57777
C         17.27593         5.34420         1.49545
C         17.62570         8.50829         1.20833
C         16.34642        10.76375         1.20449
C         16.03574        12.03904         0.40743
C         17.14851         9.71176         0.33458
C         16.94221        12.56450        -0.45696
C         15.67768        14.75929        -0.45727
C         15.63332        16.19183        -0.87347
C         16.82363        13.95725        -1.05179
C         16.88740        16.89671        -1.31071
C         15.58929        19.09578        -1.53074
C         16.90062        18.37426        -1.31601
C         18.46413         2.06025        -0.03973
C         18.62989         3.35417         0.76930
C         19.76381         1.28278        -0.01635
C         19.92930         4.10389         0.48335
C         19.08587         6.38759         1.01920
C         18.68849         7.69650         0.40443
C         19.99234         5.58429         0.40772
C         19.90627         8.46558         0.08015
C         18.31231        10.38000        -0.42104
C         18.17102        11.80367        -0.85059
C         19.75890         9.90943        -0.22550
C         19.43148        12.52250        -1.20803
C         18.17045        14.70876        -0.82289
C         18.17082        16.17509        -1.24629
C         19.35964        14.01239        -1.51308
C         19.34612        16.87618        -1.28005
C         18.08297        19.03974        -1.27447
C         19.34857        18.33520        -1.22137
C         20.92961         1.92470        -0.19777
C         20.94038         3.41763        -0.43957
C         22.27628         4.11972        -0.31057
C         21.04046         6.27697        -0.46468
C         21.22687         7.75060         0.07071
C         22.31983         5.46048        -0.37236
C         22.28945         8.57382        -0.61754
C         20.68587        10.34899        -1.39018
C         20.60019        11.86704        -1.48744
C         22.07194         9.77634        -1.16643
C         21.75544        12.62427        -1.97344
C         20.69995        14.70381        -1.16238
C         20.68665        16.19842        -1.52137
C         21.82038        13.96320        -1.85507
C         21.83096        16.95395        -0.89103
C         20.52911        19.00985        -0.99013
C         21.75684        18.29806        -0.74288
O         17.92487        10.66515        -1.80346
O         17.15076        11.22532         2.26645
O          9.51251        17.02507         2.45751
O         12.56575        16.18288        -1.24091
O          8.80795        10.28437         2.58065
O         14.06085         5.92824         2.71913
O         18.36842         5.94571         2.12961
O          3.17447        15.50232         2.08726
O          2.62705        14.10245        -1.22528
O         15.86137        16.39550        -2.30148
O          6.73349        15.17999        -0.16025
O          5.02490        10.93163        -1.97345
O         19.71158         3.40606         1.74195
O         15.45609         3.34601         2.38024
O         11.84158         7.88032         2.73977
O         15.74395         7.94337         2.87355
O          4.04032        11.93822         1.13295
O          5.25459        16.73838         2.94529
O          7.16637        12.72736        -0.89834
O          6.52391         6.17839        -1.83191
O         20.26441        10.55174         0.99084
H         19.66614        10.25635         1.72745
O         18.31468         8.96759         2.36336
H         17.81174         9.76499         2.72011
O         13.69639         8.22472        -0.16828
H         13.11066         7.57106        -0.62369
O         20.94493        14.61451         0.26746
H         21.06450        13.66641         0.49271
O         19.18239        14.13858        -2.93539
H         18.26912        13.81747        -3.14267
O         15.05103        10.35402         3.22573
H         15.94877        10.75388         3.40350
O         20.24454         9.77231        -2.62950
H         19.33972        10.12465        -2.81467
O         18.23373         2.51901        -1.41510
H         18.09579         1.72835        -1.97711
O          7.68829         7.56161         2.67166
H          7.79435         8.40813         3.16382
O         16.03602         6.23421        -0.32554
H         16.00592         7.16898        -0.65187
O          6.76144        17.62882        -0.77659
H          6.72069        18.28102        -1.50654
O         16.23538         9.17345        -0.63031
H         16.40620         9.63956        -1.48500
O         20.50298         3.65552        -1.81949
H         21.07492         3.12151        -2.40906
O         16.56717        13.81493        -2.47026
H         16.23672        14.69528        -2.78917
O          3.24728         4.26510        -3.72416
H          3.81939         5.05581        -3.89429
O          6.77292         2.66710        -2.46971
H          6.78562         1.88087        -3.05383
O          7.28750        18.09477         2.79880
H          8.20326        18.01124         3.16350
O          6.01187         8.55689        -2.22784
H          5.86129         9.40130        -2.71207
O         13.71172        15.40828         2.14980
H         14.07067        14.62650         2.64403
O          5.56500         3.04361         0.96415
H          5.22514         3.83047         1.44110
O         15.14537        17.43157         1.11549
H         14.82441        16.75121         1.76613
O          8.22009         3.15994         2.03017
H          7.29411         2.81961         2.04462
O         18.32330        14.70154         0.61103
H         19.25957        14.94297         0.82443
O          9.58484        12.85326         3.26032
H         10.45075        13.16132         3.61428
O         12.07431        13.66998        -0.68825
H         12.08451        14.47800        -1.26595
O         12.40623         5.93952        -0.60154
H         11.60313         5.56593        -1.02535
O         15.66502        20.44834        -1.06999
H         15.75713        20.42905        -0.09502
O         12.40711        13.25631         2.91105
H         12.54703        12.44915         3.46262
O          2.73758        10.65150        -3.16280
H          3.68662        10.76295        -3.39874
O          4.47429         6.74103        -3.26279
H          5.43545         6.98058        -3.25781
O         20.89859        16.27945        -2.96078
H         20.82243        17.22194        -3.21824
O          5.38779         7.81471         1.32594
H          6.03457         7.55562         2.03654
O         15.38322        13.23005         2.35841
H         16.15632        12.62005         2.56263
O         20.58508         6.37449        -1.83165
H         20.47264         5.43874        -2.14869
O          4.81405        19.52710         2.80127
H          5.58082        19.12460         3.27593
O         21.63671         7.59693         1.45948
H         21.63978         8.48628         1.87386
O         10.83057        11.45215         0.10369
H         11.13770        12.15223        -0.52561
O         11.33895        10.94480         3.69838
H         11.68287        10.15527         4.16875
O          3.35734         7.49045         0.14020
H          3.27505         8.27492         0.72120
O         18.17957         7.44108        -0.94901
H         18.93067         7.05664        -1.48258
H          0.55652         1.72319        -1.83600
H          0.65316         4.07714        -2.47758
H          2.62847         0.42129        -1.36602
H          0.70802         6.04144        -2.43154
H          0.79391         8.48822        -2.60095
H          0.46857        10.16217        -1.43972
H          0.19934        12.40282        -0.56285
H          0.09732        14.63404         0.16654
H          0.19790        17.01492         0.36304
H          1.69856        19.13150        -0.25119
H          5.11952         0.35675        -1.16380
H          3.60447        20.45655         0.48214
H          7.67015         0.38461        -0.94700
H          6.18097        20.36763         0.70225
H          9.93825         0.29201        -0.13389
H          8.36575        20.03455        -0.30783
H         12.28012         0.24807         0.31366
H         10.81685        20.20093        -0.35802
H         14.69002         0.21211         0.27837
H         13.09316        20.02643        -1.32199
H         17.19026         0.20599        -0.02043
H         15.41501        19.14849        -2.64229
H         19.74052         0.19331         0.14386
H         18.08955        20.14029        -1.28407
H         21.88375         1.37385        -0.19270
H         23.20092         3.52750        -0.22059
H         23.28430         5.98763        -0.31452
H         23.32064         8.19284        -0.54719
H         22.92941        10.31877        -1.59283
H         22.57688        12.07353        -2.45318
H         22.69631        14.52129        -2.21571
H         22.76366        16.41481        -0.67102
H         20.51607        20.10353        -0.87860
H         22.62461        18.86787        -0.37931
