         429
 CSIRO Nanostructure Databank - Neutral Graphene Oxide Data Set
C          1.31770         3.42416         0.47948
C          0.20537         4.02361        -0.10337
C          1.23701         6.22227         0.11947
C          0.17104         5.40683        -0.30672
C          1.22463         7.70116        -0.22018
C         -0.08965         8.40249         0.02890
C          1.04677        10.59010        -0.07197
C         -0.16517         9.74095         0.00127
C          1.02532        12.01116        -0.57266
C         -0.18388        12.69147        -1.09682
C          1.03934        14.82203        -1.34310
C         -0.16502        14.00821        -1.41526
C          1.03121        16.20276        -1.42046
C         -0.18592        16.98542        -1.55823
C          1.04648        19.08087        -2.04304
C         -0.19543        18.31846        -1.80992
C          1.10374        20.56189        -2.13716
C          0.00418        21.41098        -2.02394
C          1.16451        23.62559        -1.66379
C          0.02498        22.81171        -1.79847
C          1.17225        24.92120        -0.98542
C          0.00107        25.55968        -0.56777
C          1.23205        27.50463         0.24460
C          0.03836        26.81640         0.05959
C          1.27683        28.82604         1.00546
C         -0.00910        29.60324         0.99866
C          1.16575        31.76099         0.94881
C         -0.03452        30.95813         1.01269
C          1.15833        33.15579         1.19861
C         -0.04157        33.88881         1.48687
C          1.19959        35.97129         1.81483
C         -0.02320        35.23715         1.75718
C          1.23876        37.34739         2.17816
C          3.61664         3.59952         1.39120
C          2.42400         4.21252         0.87269
C          3.47427         6.44171         1.31365
C          2.36376         5.62392         0.69588
C          3.53312         7.87168         0.81734
C          2.38950         8.48951         0.35002
C          3.52031        10.65662         0.17071
C          2.36595         9.91094         0.08675
C          3.61002        11.98506        -0.47612
C          2.34090        12.61386        -0.98959
C          3.64025        14.79700        -1.25513
C          2.33319        14.07581        -1.34694
C          3.61001        16.27730        -1.07991
C          2.29527        16.97598        -1.21904
C          3.59070        19.20237        -1.28900
C          2.34437        18.40023        -1.69748
C          3.62679        20.59015        -1.90444
C          2.42159        21.08501        -2.38461
C          3.66708        23.60919        -1.64392
C          2.42953        23.16576        -2.12587
C          3.66554        24.92169        -1.05222
C          2.42952        25.57772        -0.76325
C          3.69216        27.58060        -0.10109
C          2.45256        26.89394        -0.19044
C          3.77289        28.97209         0.49987
C          2.44662        29.68458         0.59834
C          3.62493        31.86120         0.49242
C          2.40681        31.07083         0.66486
C          3.58548        33.24881         0.77513
C          2.40047        33.88530         1.17429
C          3.64152        35.98231         1.67618
C          2.42318        35.29270         1.53911
C          3.67985        37.34980         2.05847
C          2.43597        38.02025         2.29202
C          6.03021         3.68703         1.84905
C          4.81528         4.30581         1.52046
C          5.98121         6.55209         1.75549
C          4.83956         5.76109         1.09654
C          5.98113         7.99236         1.27640
C          4.76404         8.60869         0.98276
C          6.04232        10.83887         0.71035
C          4.72987        10.06410         0.75842
C          6.07376        12.17316         0.05187
C          4.86830        12.77556        -0.38437
C          6.08840        14.86050        -0.84593
C          4.88673        14.11419        -0.82217
C          6.06826        16.26104        -1.26863
C          4.89329        16.97394        -1.33867
C          6.10624        19.19106        -1.87374
C          4.83356        18.41427        -1.69280
C          6.08554        20.67699        -1.71607
C          4.84491        21.37656        -1.84750
C          6.11684        23.50489        -1.55621
C          4.87283        22.82200        -1.74956
C          6.13037        24.92726        -1.23784
C          4.90051        25.59054        -0.89609
C          6.14103        27.69038        -0.48762
C          4.89154        26.96079        -0.49531
C          6.13274        29.08358        -0.27570
C          4.79893        29.78732        -0.28018
C          6.07195        31.94176         0.10682
C          4.84687        31.23412         0.14419
C          6.09004        33.35842         0.35735
C          4.79510        34.11586         0.51431
C          6.16948        36.04024         1.40025
C          4.92445        35.19879         1.57920
C          6.17067        37.41391         1.87127
C          4.92147        38.02421         2.18592
C          8.49922         3.72608         1.94548
C          7.26995         4.39348         1.77976
C          8.50113         6.48482         1.47211
C          7.28769         5.81061         1.58466
C          8.47445         7.97350         1.49829
C          7.22131         8.71173         1.20628
C          8.53880        10.75521         0.62640
C          7.28510        10.07046         0.86371
C          8.55575        12.18764         0.25893
C          7.29648        12.87096        -0.04503
C          8.54685        14.98453        -0.47029
C          7.31168        14.23384        -0.47236
C          8.58684        16.30074        -0.90950
C          7.36806        16.93993        -1.46390
C          8.53399        19.19544        -1.05944
C          7.38989        18.42919        -1.69554
C          8.57414        20.59496        -1.65525
C          7.30354        21.36835        -1.64189
C          8.62335        23.49852        -1.56834
C          7.34515        22.78910        -1.59592
C          8.57459        25.01295        -1.78875
C          7.33995        25.64135        -1.17460
C          8.59253        27.74190        -0.65657
C          7.35989        27.01046        -0.78187
C          8.58017        29.12420        -0.32505
C          7.33363        29.81362        -0.20381
C          8.54977        31.92524         0.09734
C          7.31589        31.23583        -0.01697
C          8.52942        33.40575         0.03908
C          7.26359        34.08857         0.36388
C          8.62123        36.10317         1.04859
C          7.29988        35.45343         0.86781
C          8.64987        37.53714         1.60453
C          7.36214        38.15183         1.88741
C         10.92133         3.59297         2.08124
C          9.74236         4.36485         1.74932
C         10.96159         6.52568         1.16906
C          9.74214         5.77210         1.41149
C         11.01031         7.93526         1.13583
C          9.77866         8.72200         1.31476
C         11.00284        10.73735         0.29512
C          9.73428        10.08725         0.78559
C         11.02357        12.20970         0.69559
C          9.74094        12.87944         0.24452
C         11.07453        14.94496        -0.33226
C          9.76925        14.38658         0.18534
C         11.10392        16.26111        -1.05719
C          9.81737        17.04303        -0.96520
C         11.07710        19.14180        -1.14448
C          9.84286        18.43046        -1.11993
C         11.06623        20.61779        -1.10134
C          9.86193        21.34070        -1.62406
C         11.13266        23.50703        -1.61706
C          9.81708        22.81993        -1.56815
C         11.15866        24.97749        -1.36051
C          9.87624        25.73652        -1.40926
C         11.04236        27.74636        -0.47375
C          9.84257        27.08348        -0.78576
C         11.05332        29.13630        -0.18999
C          9.80644        29.83296        -0.16094
C         11.03304        31.93584         0.37224
C          9.76910        31.23495         0.06865
C         11.04031        33.44280         0.39317
C          9.80170        34.17839        -0.01143
C         11.10367        36.34763         0.47256
C          9.76346        35.72044         0.11750
C         11.10511        37.68851         1.00526
C          9.87776        38.28813         1.38037
C         13.48594         3.53558         1.96847
C         12.18492         3.85154         1.54363
C         13.46144         6.46774         1.06406
C         12.18767         5.86917         0.87828
C         13.48220         7.90504         1.02087
C         12.25227         8.61475         0.92763
C         13.48301        10.70217         0.53291
C         12.27035        10.01645         0.67783
C         13.46347        12.12401         0.20022
C         12.30387        12.86713         0.21147
C         13.52181        15.01247        -0.26661
C         12.27670        14.28065        -0.14975
C         13.53418        16.41073        -0.42556
C         12.34275        17.07575        -0.77286
C         13.58130        19.20354        -1.14886
C         12.32640        18.48011        -1.02345
C         13.64146        20.58168        -1.14085
C         12.37291        21.33413        -1.01677
C         13.64567        23.48284        -0.96604
C         12.41364        22.77207        -1.40815
C         13.60499        24.79617        -0.60349
C         12.30973        25.51421        -0.56016
C         13.58049        27.69419        -0.15377
C         12.28973        26.97621        -0.24220
C         13.55324        29.11437        -0.09634
C         12.30676        29.83169        -0.02259
C         13.53189        31.96787         0.20800
C         12.32106        31.23545         0.18003
C         13.52635        33.42955         0.25376
C         12.31361        34.15080         0.25630
C         13.55211        36.20035         0.04603
C         12.28941        35.57930         0.22243
C         13.55906        38.20544         0.78046
C         12.29876        38.43564         1.34142
C         15.90796         3.65153         1.71713
C         14.64989         4.29220         1.58822
C         15.92198         6.46775         1.51342
C         14.63872         5.69879         1.24517
C         15.94615         7.88052         0.98830
C         14.72654         8.59889         0.90125
C         15.98205        10.68370         0.50898
C         14.72223         9.99775         0.63614
C         15.99966        12.05802         0.26890
C         14.76603        12.75656        -0.09433
C         16.04933        14.97957         0.06400
C         14.78225        14.26245        -0.24784
C         16.07141        16.46976        -0.11021
C         14.78504        17.27438        -0.25318
C         16.13959        19.12250        -1.45662
C         14.80525        18.34074        -1.37859
C         16.15389        20.65522        -1.64142
C         14.87238        21.33998        -1.21287
C         16.12554        23.45508        -0.82448
C         14.88181        22.71390        -1.00394
C         16.09023        24.78037        -0.43575
C         14.81037        25.46485         0.01323
C         16.01407        27.71519        -0.11939
C         14.80287        26.98817        -0.14405
C         16.02211        29.13561        -0.11923
C         14.78063        29.83951        -0.05473
C         16.01684        31.95426         0.09360
C         14.77220        31.26005         0.08839
C         16.01193        33.39535         0.44479
C         14.75426        34.14570         0.33846
C         16.01408        36.34206         0.45661
C         14.78391        35.56115         0.29867
C         16.01720        37.75193         0.82305
C         14.85213        38.49485         1.24149
C         18.34443         3.53876         1.23739
C         17.13487         4.28867         1.37860
C         18.36682         6.34504         0.83177
C         17.16216         5.68850         1.17356
C         18.40579         7.76877         0.63274
C         17.18065         8.53162         0.73006
C         18.45989        10.59931         0.21754
C         17.21449         9.93704         0.52583
C         18.50318        12.00844         0.05636
C         17.29069        12.80284         0.45016
C         18.50783        14.87978        -0.23746
C         17.30178        14.21668        -0.05616
C         18.52182        16.32855        -0.42015
C         17.36687        17.06396        -0.48038
C         18.66361        19.19695        -0.86769
C         17.39903        18.44246        -1.02688
C         18.64697        20.61961        -0.95871
C         17.40657        21.34202        -1.09320
C         18.62913        23.44642        -0.69984
C         17.39187        22.72401        -0.89325
C         18.62054        24.84654        -0.45368
C         17.34042        25.49460        -0.13703
C         18.56038        27.75531        -0.21784
C         17.30692        27.00979         0.00755
C         18.51680        29.17872        -0.28478
C         17.26188        29.86774        -0.18757
C         18.45580        32.08330        -0.51958
C         17.22626        31.29020        -0.12785
C         18.52977        33.49859         0.00613
C         17.28694        34.18080         0.41465
C         18.49251        36.33695         0.46282
C         17.24212        35.65896         0.39385
C         18.49216        37.73823         0.74612
C         17.26150        38.38976         0.98120
C         19.51841         4.16530         0.89029
C         20.76555         6.23546         0.31908
C         19.55868         5.57304         0.67390
C         20.79345         7.59782         0.12417
C         19.61891         8.39952         0.26925
C         20.83444        10.51573        -0.33330
C         19.64997         9.83031         0.04601
C         20.85619        11.88258        -0.52381
C         19.69352        12.68240        -0.31566
C         20.85063        14.82033        -1.01013
C         19.72115        14.12266        -0.45637
C         20.90588        16.18185        -1.09536
C         19.87365        17.00442        -0.37035
C         21.06897        19.20248        -0.60671
C         19.85379        18.48746        -0.68133
C         21.08146        20.58240        -0.68864
C         19.88078        21.32212        -0.82466
C         21.06912        23.52393        -0.70409
C         19.87308        22.76395        -0.77111
C         21.04242        24.89416        -0.55707
C         19.81550        25.59612        -0.40452
C         20.98780        27.81006        -0.37541
C         19.78031        27.05097        -0.30301
C         20.97499        29.18032        -0.38169
C         19.75200        29.92149        -0.35972
C         20.94610        32.11168        -0.42220
C         19.75389        31.33610        -0.37259
C         20.93484        33.48513        -0.31879
C         19.71737        34.20201        -0.01663
C         20.92465        36.35582         0.42184
C         19.73253        35.63666         0.30282
C         20.92081        37.73890         0.69463
C         19.73338        38.42597         0.85621
O         16.05169        15.85758         1.24476
O         13.55256        37.49295        -0.45043
O          2.88212        16.75397         0.12556
O          3.13876        11.82161        -1.89895
O         11.56421        21.12677         0.19824
O          3.12033        14.36604        -2.55495
O          8.95957        36.30229         2.41762
O          9.18233         8.54006         2.65740
O         14.90998        13.39768        -1.43295
O         11.96906        23.08164        -2.76451
O          2.45276        22.24285        -3.17897
O         10.83475        25.76682        -2.54757
O          5.32743        18.73328        -3.02474
O         12.14042         4.60566         0.33020
O         10.92579        32.69424         1.64686
O          0.95732        11.74359         0.86712
O         17.34619        26.13619         1.20584
O          9.36327        20.74124        -2.87260
O         16.74957        33.64976         1.70557
O         12.00993        25.95289         0.80535
O          1.94179        18.48445        -3.08081
O          9.20834        33.77994        -1.28494
O          7.67981        17.53952        -2.78580
O          5.21040        10.84706         1.92372
O         16.98717        18.48256        -2.47891
O         16.21180        20.88562        -3.08023
H         16.78388        20.17535        -3.45338
O          4.55851        34.80042        -0.75106
H          4.43171        34.12076        -1.44531
O          4.33386        29.79246        -1.66842
H          5.03697        30.19228        -2.22183
O         10.95946        10.72755        -1.16463
H         11.03931         9.80053        -1.47127
O          5.09364        34.51620         2.85739
H          5.24749        35.19692         3.54564
O          1.52975        28.43278         2.42125
H          1.36890        29.23033         2.97066
O          8.39795        25.17775        -3.22095
H          9.29918        25.15657        -3.62061
O          3.58237        19.35786         0.14718
H          3.43077        18.46216         0.54200
O         14.64417        18.02952         0.97249
H         14.85819        17.41715         1.71288
O          9.73305        14.80878         1.61406
H          8.83602        14.60094         1.95534
O         20.25139        16.95083         1.05438
H         20.31852        16.00352         1.30054
O          3.14547         6.49914         2.72224
H          3.96974         6.72629         3.21876
O         11.21889        15.90241        -2.49426
H         11.36843        16.73277        -2.99629
O         14.59776        17.66825        -2.63395
H         15.47229        17.61641        -3.08784
O          1.42137         7.76881        -1.67496
H          2.30273         7.38999        -1.87750
O         17.38353        12.95780         1.93631
H         18.18801        13.48752         2.12400
O         15.95136         6.62207         2.99540
H         16.02942         5.72009         3.37500
O          4.24568        28.81565         1.86662
H          3.49588        28.42137         2.37553
O          9.43053        36.27437        -1.17796
H          9.17988        35.51220        -1.75856
O          5.11869         5.78810        -0.32797
H          4.54593         5.12072        -0.76080
O         18.27696        32.25238        -1.99433
H         19.11106        32.64036        -2.33787
O          8.16561        19.34220         0.34215
H          8.94109        19.68834         0.83339
O         14.73927        25.21780         1.45092
H         15.58455        25.56119         1.83052
O         11.03648        12.30344         2.14347
H         10.82624        13.23992         2.37065
O          5.74841         6.59668         3.19925
H          6.44564         7.16146         3.59658
H          1.35149         2.33444         0.62126
H         -0.64618         3.40593        -0.42124
H         -0.69992         5.86157        -0.79892
H         -1.00220         7.80039         0.15065
H         -1.12873        10.25063         0.15016
H         -1.12885        12.13086        -1.13775
H         -1.10318        14.48906        -1.72688
H         -1.14964        16.46776        -1.45129
H         -1.15622        18.84881        -1.87775
H         -0.98544        20.93729        -1.92563
H         -0.94719        23.25099        -1.52739
H         -0.97520        25.08082        -0.72426
H         -0.91325        27.25025         0.39467
H         -0.95761        29.05719         1.10157
H         -1.00813        31.46349         1.08797
H         -1.00791        33.36627         1.48491
H         -0.96626        35.76393         1.96521
H          0.29235        37.87030         2.38006
H          3.60239         2.51904         1.60265
H          2.44903        39.08223         2.57709
H          6.04411         2.61237         2.08750
H          4.91815        39.07981         2.49663
H          8.49013         2.65471         2.19587
H          7.32237        39.24101         2.03599
H         10.80111         2.78080         2.81355
H          9.87630        39.35861         1.63644
H         13.63590         2.69605         2.66336
H         12.21410        39.16829         2.15746
H         15.92727         2.58130         1.97150
H         15.00096        39.30162         1.97471
H         18.31980         2.45185         1.40170
H         17.27677        39.44758         1.28365
H         20.44520         3.58403         0.77803
H         21.68483         5.64362         0.20081
H         21.74544         8.07075        -0.15116
H         21.76723         9.95584        -0.48377
H         21.80172        12.35860        -0.81735
H         21.67760        14.23139        -1.43334
H         21.77355        16.67290        -1.55874
H         22.00864        18.65596        -0.44727
H         22.04129        21.10742        -0.59573
H         22.04324        23.02349        -0.78266
H         21.99806        25.43267        -0.52899
H         21.95760        27.29831        -0.41613
H         21.93396        29.71285        -0.42123
H         21.91890        31.61044        -0.52229
H         21.88630        34.02864        -0.38357
H         21.89303        35.84999         0.31072
H         21.87944        38.26912         0.78287
H         19.73504        39.50290         1.07691
