         424
 CSIRO Nanostructure Databank - Neutral Graphene Oxide Data Set
C          1.15453         3.60056        -1.13922
C         -0.04483         4.28547        -1.01698
C          1.14101         6.37251        -0.53434
C         -0.05848         5.65499        -0.72292
C          1.14981         7.78914        -0.20529
C         -0.05176         8.52355        -0.12443
C          1.15649        10.50954         0.59186
C         -0.04747         9.85611         0.24678
C          1.10646        11.90434         1.10949
C         -0.04435        12.75374         0.85345
C          1.21004        14.81474         1.34842
C         -0.00273        14.10129         1.08330
C          1.20023        16.27906         1.36051
C         -0.01900        16.99903         1.32755
C          1.16979        19.11502         1.18547
C         -0.03247        18.37896         1.25612
C          1.16290        20.55834         1.02618
C         -0.01752        21.30539         1.06391
C          1.14434        23.43382         0.77604
C          0.00030        22.73015         1.03095
C          1.14955        24.94759         0.80989
C         -0.06334        25.59163         0.18477
C          1.21314        27.60363        -0.41877
C         -0.02947        26.85360        -0.29564
C          1.24052        28.95952        -0.96964
C          0.08874        29.52146        -1.53365
C          1.32909        31.51173        -2.12238
C          0.15811        30.76328        -2.17408
C          1.32742        33.80761        -2.14291
C          0.14724        34.55917        -2.24090
C          1.22272        36.34616        -1.03375
C          0.06890        35.80230        -1.62779
C          1.21139        37.70386        -0.56675
C          3.61702         3.60285        -1.11664
C          2.38925         4.28363        -0.96879
C          3.61779         6.38255        -0.48006
C          2.37942         5.68292        -0.65206
C          3.62565         7.75359        -0.10652
C          2.38143         8.45718         0.06784
C          3.65979        10.43898         1.02105
C          2.37362         9.81957         0.49383
C          3.68186        11.95437         0.98201
C          2.45216        12.65771         1.32413
C          3.68878        14.81880         1.27318
C          2.43645        14.12784         1.32241
C          3.71198        16.28276         1.65317
C          2.41156        16.99634         1.36074
C          3.65062        19.13903         1.19889
C          2.40588        18.41132         1.25228
C          3.62003        20.55926         1.06427
C          2.41785        21.24651         0.90750
C          3.67831        23.43306         0.63793
C          2.39467        22.67253         0.39830
C          3.62827        24.87222         0.43900
C          2.43859        25.56597         0.31042
C          3.65971        27.62439        -0.48745
C          2.40149        26.94859        -0.12120
C          3.68679        29.08425        -0.66983
C          2.46127        29.72911        -0.97907
C          3.67819        31.91750        -1.24058
C          2.49430        31.09991        -1.41623
C          3.66716        33.39184        -1.22489
C          2.45982        34.21015        -1.40558
C          3.62722        36.22213        -0.55307
C          2.42903        35.57591        -0.96334
C          3.61531        37.61465        -0.21986
C          2.36444        38.32108        -0.17944
C          6.07903         3.60698        -1.19348
C          4.84763         4.28511        -1.00048
C          6.08573         6.39205        -0.63735
C          4.84830         5.68690        -0.68970
C          6.09287         7.80669        -0.34087
C          4.87535         8.46633        -0.00087
C          6.09360        10.56780         0.36768
C          4.89195         9.82543         0.40737
C          6.10402        11.98732         0.62856
C          4.86825        12.67977         0.86386
C          6.14293        14.84556         1.01646
C          4.88160        14.12442         1.06345
C          6.14792        16.29081         0.99190
C          4.93318        17.02270         1.16628
C          6.10403        19.17647         0.78270
C          4.89306        18.43043         1.09441
C          6.12065        20.54956         0.74648
C          4.91311        21.31545         1.25009
C          6.18560        23.47710         0.86709
C          4.85767        22.75976         0.81694
C          6.11848        24.79597         0.09066
C          4.92882        25.63374         0.55208
C          6.16946        27.72085        -0.11241
C          4.94017        26.92768        -0.21742
C          6.14140        29.10316        -0.36941
C          4.89771        29.79506        -0.66090
C          6.13120        31.91551        -0.76935
C          4.89547        31.22670        -0.87813
C          6.17422        33.38811        -1.08341
C          4.84765        34.08131        -0.87966
C          6.04782        36.18356        -0.24412
C          4.85737        35.49100        -0.56571
C          6.05140        37.59268        -0.02068
C          4.82032        38.28972         0.00492
C          8.56396         3.61951        -1.31160
C          7.29934         4.29359        -1.11709
C          8.59879         6.42012        -0.98993
C          7.28812         5.69637        -0.86602
C          8.58379         7.84667        -0.50395
C          7.32248         8.53457        -0.31898
C          8.54886        10.67747        -0.02901
C          7.30238         9.90788        -0.00431
C          8.54560        12.03138         0.51872
C          7.33662        12.70522         0.69328
C          8.60782        14.85117         0.81031
C          7.35077        14.14601         0.88089
C          8.60052        16.28337         0.74495
C          7.36926        16.97364         0.76374
C          8.60912        19.17710         0.53024
C          7.32392        18.41145         0.32445
C          8.59476        20.51815         0.30095
C          7.33842        21.27829         0.39158
C          8.57994        23.40900        -0.10249
C          7.34875        22.65170         0.36409
C          8.59629        24.88556         0.24218
C          7.40135        25.58553         0.21848
C          8.60314        27.72639         0.19243
C          7.38286        27.01841         0.15514
C          8.59159        29.14911        -0.01572
C          7.36959        29.82563        -0.31081
C          8.59969        31.94699        -0.45684
C          7.35976        31.23744        -0.52264
C          8.58223        33.38888        -0.41922
C          7.37110        34.06578        -0.47717
C          8.57182        36.21890        -0.01709
C          7.29174        35.43291         0.12073
C          8.54187        37.66425         0.08279
C          7.27748        38.30005         0.14675
C         11.02257         3.60567        -1.23540
C          9.77083         4.23076        -1.00996
C         11.03431         6.34669        -0.40359
C          9.72362         5.60163        -0.36052
C         11.05150         7.71578        -0.27162
C          9.79900         8.46709        -0.30317
C         11.11820        10.53668         0.31934
C          9.86812         9.92705        -0.16538
C         11.11002        11.94168         0.78031
C          9.81627        12.69357         0.83832
C         11.08908        14.84082         0.74876
C          9.84036        14.16256         0.78607
C         11.06152        16.27766         0.76377
C          9.86198        16.97550         0.73113
C         11.14231        19.14045         0.51019
C          9.86719        18.46993         0.98920
C         11.14362        20.55399         0.25936
C          9.85931        21.25969        -0.07601
C         11.11795        23.44735         0.18850
C          9.83015        22.69692         0.43305
C         11.09698        24.87421         0.24229
C          9.84304        25.58321         0.27897
C         11.06794        27.71438         0.34320
C          9.84009        27.00601         0.29984
C         11.03565        29.19491         0.58109
C          9.80362        29.87120         0.04759
C         11.06083        31.99422        -0.06350
C          9.81616        31.26653        -0.17466
C         11.06218        33.41802        -0.18444
C          9.81887        34.10796        -0.24969
C         11.05839        36.23956        -0.03186
C          9.76861        35.53876        -0.15456
C         11.04416        37.80323         0.04740
C          9.73149        38.41716         0.01992
C         13.46752         3.62398        -1.30018
C         12.25075         4.22283        -0.95295
C         13.53918         6.32821        -0.39319
C         12.27698         5.52938        -0.19092
C         13.52160         7.72963        -0.12450
C         12.30125         8.42220        -0.02937
C         13.54011        10.46731         0.88095
C         12.28859         9.81796         0.32659
C         13.57718        11.97951         0.67722
C         12.38493        12.69959         0.70569
C         13.59299        14.85538         0.71189
C         12.34206        14.13230         0.73162
C         13.60350        16.26034         0.72329
C         12.34449        17.02926         1.04446
C         13.57618        19.08042        -0.02046
C         12.31754        18.43431         0.49792
C         13.59222        20.58385         0.16727
C         12.34809        21.27604         0.17114
C         13.55857        23.45235         0.02263
C         12.33168        22.74003         0.11485
C         13.56694        24.89479         0.08460
C         12.31296        25.60248         0.23963
C         13.53167        27.77893         0.30885
C         12.29589        27.03368         0.31144
C         13.54508        29.17291         0.23458
C         12.31128        29.90535         0.22176
C         13.56433        32.06129         0.36513
C         12.28946        31.29502         0.10113
C         13.54518        33.47907        -0.15174
C         12.30684        34.12383        -0.27153
C         13.52986        36.32698        -0.45612
C         12.25067        35.58083        -0.68138
C         13.51468        37.74206        -0.39564
C         12.28071        38.45368        -0.33470
C         15.91485         3.66243        -1.49773
C         14.71187         4.29138        -1.14354
C         15.97685         6.40872        -0.71684
C         14.73033         5.68103        -0.72430
C         16.01230         7.76227        -0.32461
C         14.77894         8.45679        -0.00429
C         16.09153        10.43294         0.79596
C         14.79787         9.76868         0.42543
C         16.04228        11.94260         0.69111
C         14.84917        12.66604         0.70362
C         16.05216        14.84169         0.73899
C         14.84617        14.12651         0.71040
C         16.08938        16.27298         0.67007
C         14.83060        17.00083         0.65449
C         16.03982        19.17014         0.55054
C         14.81285        18.39313         0.49263
C         16.05087        20.59077         0.13930
C         14.81408        21.29097         0.09934
C         16.00669        23.44446        -0.14177
C         14.80883        22.74672         0.00495
C         16.02330        24.92800        -0.44616
C         14.75915        25.60533         0.00327
C         16.04010        27.78194         0.06482
C         14.81355        27.02280         0.50556
C         16.02772        29.14469        -0.08398
C         14.79875        29.90195         0.05061
C         16.04794        32.02676        -0.12337
C         14.80900        31.28885         0.00112
C         16.01864        33.46874        -0.21438
C         14.77181        34.15269        -0.34392
C         16.03111        36.32908        -0.48213
C         14.77632        35.58265        -0.82682
C         15.99348        37.76383        -0.43752
C         14.75287        38.45110        -0.46283
C         18.36479         3.69995        -1.82999
C         17.14823         4.35352        -1.46352
C         18.42242         6.43176        -1.07470
C         17.18312         5.72902        -1.08137
C         18.46839         7.80682        -0.68888
C         17.26228         8.47761        -0.28300
C         18.53833        10.53967         0.11343
C         17.30786         9.81825         0.14100
C         18.58010        11.92557         0.47144
C         17.33470        12.61189         0.87490
C         18.59321        14.83646         0.58025
C         17.33685        14.13949         0.89773
C         18.57320        16.24620         0.43198
C         17.31947        16.94351         0.53275
C         18.54165        19.09002        -0.11169
C         17.35981        18.41336         0.55589
C         18.53746        20.59545         0.05626
C         17.29123        21.25987        -0.02208
C         18.58744        23.47774         0.00329
C         17.25983        22.71081        -0.25807
C         18.45571        24.88917         0.44710
C         17.26270        25.65808         0.05799
C         18.53052        27.77629         0.31809
C         17.28469        27.03235         0.12361
C         18.53895        29.17326         0.09309
C         17.30369        29.85886        -0.45697
C         18.50196        32.06238        -0.13602
C         17.26955        31.34475        -0.17423
C         18.49009        33.49538        -0.17749
C         17.24685        34.18670        -0.27356
C         18.47051        36.36090        -0.22470
C         17.23784        35.63546        -0.33533
C         18.44336        37.79358        -0.22901
C         17.20927        38.47224        -0.31633
C         19.56094         4.37742        -1.82128
C         20.84855         6.46353        -1.42887
C         19.61896         5.75181        -1.44623
C         20.89133         7.78786        -1.05461
C         19.71079         8.49328        -0.67324
C         20.95690        10.61340        -0.25808
C         19.74358         9.87869        -0.28325
C         20.97808        11.94909         0.07240
C         19.78533        12.64990         0.40891
C         21.01607        14.83895         0.44227
C         19.80282        14.10675         0.52322
C         21.02069        16.21739         0.38511
C         19.81459        16.96615         0.33785
C         21.00248        19.15999         0.34125
C         19.83286        18.39463         0.23627
C         20.98130        20.54954         0.31946
C         19.77228        21.30157         0.20459
C         20.95005        23.47651         0.70987
C         19.78328        22.72549         0.36377
C         20.97109        24.84451         0.80512
C         19.73060        25.63090         0.84588
C         20.91147        27.85289         0.79887
C         19.72941        27.10520         0.66675
C         20.91402        29.22611         0.59074
C         19.73764        29.90784         0.21076
C         20.93194        32.09486        -0.02226
C         19.74026        31.35967        -0.00868
C         20.92540        33.48995        -0.09714
C         19.72705        34.21614        -0.14176
C         20.89886        36.43013        -0.05146
C         19.71644        35.67618        -0.13939
C         20.86910        37.83452        -0.04632
C         19.66731        38.51429        -0.13264
O          1.36557        32.65017        -2.92725
O          1.69760        12.04716         2.44224
O         11.27362        36.87063         1.20689
O         17.43314        13.35518         2.13973
O         10.43642        12.11406         2.09382
O          9.28557        10.62746        -1.32738
O          4.39175        26.86389        -1.57715
O         18.11503        23.21083        -1.35771
O         16.86603        18.99139         1.78287
O         18.79106        25.10673         1.85669
O         18.32691        18.84621        -1.54880
H         19.05488        19.28696        -2.03607
O          7.15273        35.19837         1.59239
H          7.23325        36.07508         2.02713
O          6.40852        33.46340        -2.55408
H          5.69567        32.94465        -2.98587
O         14.95877        26.87877         1.97699
H         14.88876        27.77559         2.36840
O         16.26231        10.16859         2.23762
H         15.37717        10.30420         2.65633
O          3.69376        10.08789         2.45246
H          2.95401        10.59190         2.87155
O          5.93067        24.44058        -1.30409
H          5.45492        25.17810        -1.75391
O          8.56215        23.39432        -1.55059
H          7.68451        23.75996        -1.82091
O         10.94601        29.34058         2.06404
H         10.78247        30.29139         2.24712
O          9.68883        22.61185         1.87355
H          9.56550        23.51801         2.22727
O          9.42388         5.40967         1.04695
H         10.24026         5.03521         1.45676
O          6.48664        23.76816         2.27000
H          6.21828        22.96054         2.77834
O         17.41204        29.75142        -1.92204
H         18.21560        30.24417        -2.19300
O          9.86062        18.59537         2.44752
H         10.71672        18.21211         2.76460
O         13.48235        10.28761         2.34884
H         12.69548        10.78053         2.67212
O          9.86829        21.27893        -1.53543
H          9.74264        20.35905        -1.84870
O          3.82772        16.29429         3.12947
H          3.07004        15.78083         3.48355
O         12.35927        17.20786         2.51996
H         12.44010        16.31565         2.92165
O          2.32733        22.53764        -1.07429
H          1.50564        22.04301        -1.28138
O         13.61461        32.20317         1.83665
H         13.60049        31.29849         2.21650
O          8.90641         6.48370        -2.41867
H          8.27013         7.10033        -2.83767
O         12.25017         5.14249         1.24555
H         12.51133         5.93553         1.76215
O          5.11762        21.40263         2.72051
H          5.22715        20.48591         3.05619
O         16.08001        25.03235        -1.91498
H         16.84471        24.47439        -2.19636
O          1.09409        25.30227         2.23935
H          1.18211        26.27700         2.30338
O         12.00751        35.60005        -2.12576
H         12.87626        35.37751        -2.55023
O         14.75351        35.48675        -2.34332
H         15.05253        36.35909        -2.68199
O          7.18867        18.31180        -1.15097
H          6.98678        19.21297        -1.48436
O         13.58696        18.86646        -1.49022
H         12.89245        19.44366        -1.87410
O          5.09322        26.01221         1.93857
H          5.50579        25.24480         2.41324
H          1.16248         2.52679        -1.37468
H         -0.99715         3.75366        -1.15174
H         -1.02953         6.15912        -0.63235
H         -1.01382         8.04407        -0.34601
H         -1.00472        10.38839         0.32091
H         -0.95262        12.31985         0.41393
H         -0.92482        14.67102         0.91024
H         -0.97984        16.47113         1.37147
H         -1.00136        18.89470         1.23372
H         -0.98535        20.81091         1.21775
H         -0.93965        23.25889         1.24603
H         -1.02421        25.05770         0.22713
H         -0.96455        27.30589        -0.65450
H         -0.85624        28.96512        -1.56474
H         -0.70086        31.14813        -2.73829
H         -0.69530        34.15651        -2.81762
H         -0.85401        36.39666        -1.67853
H          0.25807        38.25208        -0.57643
H          3.61430         2.52865        -1.35340
H          2.36134        39.37488         0.13392
H          6.06975         2.52803        -1.40722
H          4.81288        39.37157         0.20292
H          8.55356         2.58650        -1.69317
H          7.23700        39.39239         0.27011
H         11.03258         2.60847        -1.70502
H          9.66558        39.49603        -0.18481
H         13.45938         2.63190        -1.77771
H         12.26834        39.52602        -0.57899
H         15.89801         2.61174        -1.82404
H         14.74693        39.54932        -0.41698
H         18.32909         2.64030        -2.12195
H         17.19351        39.57179        -0.28187
H         20.49172         3.86443        -2.10397
H         21.77290         5.94191        -1.71654
H         21.86154         8.30182        -1.05168
H         21.90312        10.12512        -0.52491
H         21.93962        12.47724         0.04619
H         21.98080        14.31560         0.44155
H         21.98705        16.73649         0.33526
H         21.97069        18.66404         0.49780
H         21.93609        21.07924         0.42967
H         21.90512        22.94304         0.81501
H         21.93641        25.35602         0.92192
H         21.84800        27.35666         1.08733
H         21.85447        29.77580         0.72686
H         21.90138        31.58282         0.03965
H         21.89110        34.01246        -0.09460
H         21.87393        35.92983         0.01829
H         21.81315        38.39240         0.02725
H         19.64491        39.61344        -0.12993
