         429
 CSIRO Nanostructure Databank - Neutral Graphene Oxide Data Set
C          1.36622         1.91453        -0.74611
C          1.30832         3.31040        -0.71126
C          2.57349         1.25860        -0.96167
C          2.47217         4.08829        -0.90135
C          1.25963         6.27832        -0.71142
C          1.23765         7.69331        -0.52524
C          2.43219         5.55927        -0.88301
C          2.38353         8.46184        -0.55064
C          1.18482        10.66553        -0.57199
C          1.14738        12.03066        -0.60163
C          2.40074         9.90740        -0.42568
C          2.31189        12.83657        -0.23544
C          1.16670        15.06899        -0.54229
C          1.21040        16.45315        -0.69306
C          2.35051        14.31199        -0.48245
C          2.44064        17.13639        -0.75521
C          2.49118        18.57826        -0.83871
C          3.76602         2.00303        -1.14028
C          3.70101         3.42089        -1.09387
C          5.01682         1.32798        -1.33614
C          4.93267         4.21574        -1.43986
C          3.68999         6.28409        -0.84697
C          3.66537         7.79183        -0.97413
C          4.88788         5.61819        -0.88001
C          4.92327         8.48481        -0.51188
C          3.63223        10.59637        -0.35433
C          3.63556        12.05517        -0.13706
C          4.89439         9.92592        -0.40978
C          4.89358        12.78081        -0.37026
C          3.59101        14.98044        -0.59421
C          3.65086        16.39304        -0.71293
C          4.84175        14.20696        -0.70413
C          4.92097        17.10291        -0.64371
C          3.67530        19.25390        -0.80203
C          4.93263        18.56259        -0.66865
C          6.24618         1.99807        -1.31529
C          6.25190         3.48146        -1.20166
C          7.48465         1.32766        -1.37410
C          7.44685         4.11528        -0.51698
C          6.09998         6.30197        -0.36631
C          6.10116         7.78650        -0.41020
C          7.33576         5.54191         0.00276
C          7.37579         8.51731        -0.38121
C          6.10973        10.65557        -0.28162
C          6.10566        12.10171        -0.34021
C          7.35437         9.97275        -0.22250
C          7.37243        12.81870        -0.32043
C          6.16697        14.97160        -0.69537
C          6.11356        16.42161        -0.50592
C          7.39454        14.23177        -0.37256
C          7.35137        17.14283        -0.04070
C          6.13750        19.25415        -0.65976
C          7.39173        18.58737        -0.48038
C          8.68617         1.95585        -0.92275
C          8.57006         3.18975        -0.20763
C          9.96386         1.34962        -0.96563
C          9.68025         3.60907         0.54803
C          8.59526         6.33049         0.25890
C          8.68261         7.77099        -0.07795
C          9.61315         5.77998         0.95670
C          9.78594         8.56816         0.48805
C          8.57526        10.66576        -0.05782
C          8.58610        12.10088        -0.12061
C          9.76714         9.94525         0.33392
C          9.82512        12.82572        -0.05115
C          8.61149        14.96372        -0.26899
C          8.63231        16.38847        -0.29822
C          9.83870        14.24469        -0.17367
C          9.85317        17.08564        -0.34926
C          8.60519        19.23929        -0.54286
C          9.86342        18.53922        -0.42702
C         11.12187         2.03549        -0.51191
C         10.99669         3.25312         0.24451
C         12.41312         1.47041        -0.64879
C         12.17635         4.25009         0.28523
C         10.92824         6.38180         1.25403
C         10.92801         7.87476         1.16468
C         12.19600         5.46539         1.28684
C         12.25223         8.57314         1.21692
C         10.97222        10.74913         0.65760
C         11.04334        12.14463         0.18614
C         12.25926        10.05218         0.98013
C         12.28288        12.82336         0.14974
C         11.07764        14.94497        -0.19301
C         11.09324        16.37758        -0.33668
C         12.28465        14.21832        -0.09714
C         12.33067        17.08638        -0.36385
C         11.07248        19.21793        -0.43059
C         12.33019        18.52908        -0.37168
C         13.56848         2.13713        -0.17178
C         13.51397         3.50445         0.29005
C         14.80106         1.45232        -0.19252
C         14.70733         4.18436         0.54304
C         13.48483         6.28223         1.00267
C         13.50468         7.76865         1.13289
C         14.68859         5.62060         0.82781
C         14.72989         8.47339         0.57840
C         13.53857        10.72191         0.67151
C         13.54125        12.10664         0.34988
C         14.73547         9.98897         0.72013
C         14.78384        12.76187         0.18762
C         13.54400        14.91480        -0.40853
C         13.56857        16.39216        -0.36900
C         14.82715        14.14144        -0.35306
C         14.79581        17.08195        -0.27231
C         13.54727        19.21406        -0.31349
C         14.79134        18.52692        -0.21740
C         16.01114         2.10372         0.12587
C         15.97660         3.51079         0.43153
C         17.24603         1.42319         0.06886
C         17.19616         4.21575         0.55520
C         15.96824         6.32763         0.83656
C         15.95500         7.80292         1.19005
C         17.15985         5.65571         0.69345
C         17.22868         8.55007         0.88851
C         15.96834        10.68349         0.70493
C         15.98721        12.08679         0.49258
C         17.22196         9.96044         0.83622
C         17.24038        12.83119         0.56061
C         16.15514        14.89137        -0.42731
C         16.04555        16.38488        -0.12606
C         17.27108        14.18691         0.30731
C         17.20546        17.10158         0.12849
C         16.00704        19.22653        -0.08713
C         17.23542        18.54745         0.09986
C         18.46634         2.09902         0.29288
C         18.44821         3.52211         0.52681
C         19.70243         1.41584         0.24030
C         19.68399         4.19738         0.75933
C         18.45351         6.39489         0.43466
C         18.44089         7.84500         0.85762
C         19.69007         5.64509         0.87754
C         19.65421         8.55023         0.92589
C         18.45088        10.67995         0.87357
C         18.46966        12.11210         0.85905
C         19.67435         9.96228         0.98510
C         19.68722        12.80133         1.05045
C         18.59089        14.91080         0.30349
C         18.43237        16.40042         0.55826
C         19.63365        14.29533         1.25472
C         19.71882        17.16137         0.68275
C         18.47481        19.23842         0.14064
C         19.72712        18.58334         0.27812
C         20.92644         2.08734         0.45903
C         20.91390         3.49649         0.76086
C         22.16717         1.42597         0.35514
C         22.16161         4.15308         1.06800
C         20.85199         6.31925         1.12481
C         20.91311         7.78668         0.93295
C         22.10134         5.58702         1.45604
C         22.17269         8.54379         1.24121
C         20.91509        10.68115         1.17068
C         20.90120        12.11891         1.22844
C         22.10464         9.99430         1.39099
C         22.15289        12.84074         1.33235
C         20.96254        14.98982         1.00951
C         20.98230        16.38139         0.69350
C         22.15875        14.27244         1.09546
C         22.17862        17.01973         0.36362
C         20.95582        19.18857         0.02490
C         22.18915        18.44183         0.00577
C         23.39705         2.09650         0.58897
C         23.37603         3.48291         1.02569
C         24.60271         1.43748         0.32135
C         24.65116         4.12336         1.59308
C         23.39649         6.34505         1.63013
C         23.41140         7.82587         1.58429
C         24.67784         5.63287         1.44048
C         24.58394         8.51138         1.71759
C         23.30571        10.72182         1.82070
C         23.35334        12.17045         1.55828
C         24.58522         9.95990         2.04150
C         24.63935        12.83555         1.47411
C         23.41856        14.92998         0.89459
C         23.41712        16.29233         0.43955
C         24.63764        14.23822         1.07598
C         24.62830        16.90210         0.06185
C         23.37285        19.02946        -0.38823
C         24.57742        18.19102        -0.71663
C         25.90540         2.07816         0.48910
C         25.95789         3.47164         1.09642
C         27.04688         1.61334        -0.30010
C         27.14301         4.30686         0.78450
C         25.84284         6.33907         1.29070
C         25.82456         7.82556         1.29435
C         27.11445         5.69084         0.99639
C         27.11162         8.61492         1.26666
C         25.89529        10.73382         2.20609
C         25.83779        12.16398         1.68285
C         27.11201        10.00967         1.68634
C         27.12659        12.95915         1.82074
C         25.87431        14.90323         0.81577
C         25.85827        16.23064         0.26310
C         27.11096        14.25250         1.04615
C         27.09005        16.88308        -0.03721
C         25.88431        18.92148        -0.72499
C         27.06862        18.26071        -0.50194
C         28.23197         2.32394        -0.35493
C         28.31401         3.68313         0.19667
C         29.39440         1.74686        -0.95615
C         29.46045         4.43300         0.01095
C         28.32123         6.47578         0.91318
C         28.36940         7.84180         1.15789
C         29.63091         5.72766         0.77592
C         29.63585         8.51931         1.32302
C         28.38319        10.71062         1.89398
C         28.40742        12.16405         1.62477
C         29.66932         9.92737         1.76519
C         29.59372        12.79865         1.31801
C         28.32524        14.87774         0.70201
C         28.31860        16.21525         0.16643
C         29.58088        14.20099         0.89607
C         29.55729        16.86855        -0.14958
C         28.33371        18.88723        -0.79828
C         29.51775        18.20850        -0.69473
C         30.60315         2.43961        -1.04709
C         30.62320         3.87096        -0.67752
C         31.78336         1.87220        -1.56255
C         31.97122         4.58367        -0.54897
C         30.75369         6.62999         0.21640
C         30.83159         7.89391         1.02341
C         32.05633         5.85571         0.19462
C         32.11472         8.49373         1.28204
C         30.91217        10.66335         1.46940
C         30.86547        12.06152         1.30927
C         32.13987         9.94176         1.43824
C         32.08709        12.74659         1.10941
C         30.77497        14.87612         0.61636
C         30.78372        16.20956         0.09137
C         32.05432        14.21118         0.94452
C         32.04151        16.84186        -0.29027
C         30.75796        18.85875        -1.26035
C         32.05253        18.20684        -0.84456
C         33.06218         2.47635        -1.41105
C         33.15810         3.71656        -0.60042
C         34.14170         1.92430        -2.11345
C         34.19001         4.00885         0.24361
C         33.21627         6.30750         0.78801
C         33.27932         7.70409         1.24757
C         34.35602         5.28192         1.09727
C         34.55999         8.32881         1.67385
C         33.36127        10.65397         1.39155
C         33.32465        12.05866         1.15473
C         34.62241         9.94088         1.72419
C         34.56311        12.76914         0.87803
C         33.34149        14.90080         0.53603
C         33.24050        16.17739        -0.17771
C         34.56855        14.09542         0.43720
C         34.45845        16.75652        -0.86009
C         33.21444        18.88814        -0.98579
C         34.53267        18.25963        -0.59871
C         35.49268         2.39076        -1.95365
C         35.87243         2.92329        -0.70737
C         36.48895         2.42918        -2.96630
C         37.06462         3.60904        -0.54872
C         35.71287         6.03290         1.00361
C         35.75398         7.32633         1.80082
C         36.95488         5.52705         0.67159
C         37.10798         7.96444         1.71952
C         35.86462        10.78471         1.63894
C         35.80478        12.08161         1.11704
C         37.16437        10.22777         1.89127
C         37.03763        12.86980         0.97155
C         35.77776        14.75769         0.00051
C         35.75815        16.06710        -0.52911
C         37.02674        14.11779         0.20253
C         36.96048        16.71539        -0.87733
C         35.74691        18.84192        -1.26684
C         36.92939        18.11044        -1.32104
C         37.70804         3.11473        -2.78818
C         37.97637         3.81714        -1.57460
C         38.69895         3.16456        -3.85065
C         39.20972         4.61616        -1.32287
C         38.15966         6.30286         0.34515
C         38.22083         7.58430         1.03320
C         39.22269         5.83941        -0.44224
C         39.52557         8.36331         1.18407
C         38.34164        10.70233         1.33723
C         38.38275        12.12405         1.03673
C         39.41393         9.84049         0.68376
C         39.53766        12.69256         0.32504
C         38.22915        14.69654        -0.26604
C         38.19813        16.01626        -0.81376
C         39.47114        13.95504        -0.23219
C         39.41269        16.64692        -1.26224
C         38.14598        18.71134        -1.73930
C         39.36781        18.01046        -1.71085
C         39.88022         3.80045        -3.68407
C         40.24237         4.50825        -2.43604
C         41.29614         5.53215        -2.51142
C         40.43768         6.64804        -0.48128
C         40.63512         7.73091         0.37403
C         41.43125         6.44397        -1.52525
C         41.89415         8.42040         0.45408
C         40.75553        10.56869         0.66450
C         40.77517        11.93398         0.38416
C         41.94810         9.77376         0.67504
C         41.99150        12.71404         0.18583
C         40.67266        14.45254        -1.01004
C         40.64524        15.94169        -1.29272
C         41.94913        13.93759        -0.38471
C         41.79467        16.58930        -1.74282
C         40.57381        18.64314        -2.13370
C         41.76211        17.94247        -2.14083
O          6.33577         5.76354         1.03985
O         18.87431        16.89907         1.87145
O          9.42979         4.53848         1.55434
O          7.30690         4.11339        -1.99756
O         22.61281         5.87729         2.80252
O         32.84382        14.95505         1.92922
O         21.81041         8.13785        -0.18609
O         40.35973         3.70991        -1.20428
O         37.20633         4.16001         0.71859
O         37.20440         9.03310         2.61859
O         11.47105        10.69237         2.04764
O         35.07142         2.92290         0.45447
O         26.26186         8.40820         0.01059
O         14.12585        14.28634        -1.64376
O         23.71507        10.26558         3.19416
O         31.19057         4.68533        -1.78882
O          2.89711        12.48416         1.06465
O          5.55882        14.51647        -1.95625
O         13.02891         8.25464         2.42012
O         37.90028        12.94008         2.15129
O         29.13082        10.22694         3.10205
O         34.44675         9.10757         2.90919
O         26.29984         2.31903         1.93235
O         10.68465         7.20680         2.45761
O          8.31809         8.09176        -1.44985
O         12.30404         4.94634         2.61410
H         12.13667         5.69078         3.23414
O         30.77517        20.26231        -0.96807
H         30.79739        20.36878         0.00490
O         14.72088         8.21671        -0.84845
H         15.58408         8.49643        -1.22022
O         30.39639         7.08216        -1.11047
H         30.54625         6.32396        -1.73082
O         12.07332         4.90520        -1.01803
H         12.20949         4.22840        -1.71499
O         15.79108         7.88746         2.63075
H         16.55782         7.45283         3.05793
O          7.22843        17.18847         1.43375
H          7.97964        17.72272         1.77031
O         35.66862         6.87877         3.20222
H         35.49450         7.69157         3.73493
O          4.86264         4.39614        -2.89425
H          5.76982         4.64067        -3.18920
O         39.91689         8.37727         2.56573
H         39.13741         8.66623         3.09175
O         34.72166        18.44221         0.83605
H         34.74617        19.40382         1.02072
O         27.16344        13.35085         3.23994
H         27.02061        12.51545         3.75472
O         24.59105         3.88973         3.02517
H         25.02138         3.01622         3.18189
O         19.15331        14.77747        -1.03406
H         18.39964        14.81452        -1.67376
O         34.12982         4.84107         2.44698
H         34.57026         5.48965         3.05271
O         40.59148        13.82097        -2.34050
H         40.79483        12.86885        -2.22333
O          3.69906         7.99623        -2.44210
H          2.98369         7.44677        -2.82860
O         19.24419        14.44758         2.63703
H         19.16969        15.41757         2.81716
O         34.26609        16.60132        -2.29894
H         34.29044        15.64507        -2.50989
O         38.97558         9.73296        -0.70858
H         39.06948        10.61595        -1.12516
O         24.36064        17.78063        -2.13603
H         23.53475        17.25007        -2.15458
O         16.57358        14.85667        -1.83943
H         15.73629        14.78486        -2.36369
O         30.05387         5.33014         2.11266
H         29.33169         4.80795         2.52166
O         18.54494         6.45060        -1.03479
H         19.40588         6.86482        -1.26108
O         26.13844        10.85795         3.65609
H         25.24775        10.83374         4.08426
H          0.44544         1.33159        -0.60430
H          0.33752         3.79625        -0.54450
H          2.61227         0.16045        -0.99145
H          0.29562         5.75339        -0.66256
H          0.26322         8.15891        -0.31809
H          0.26134        10.11766        -0.80800
H          0.22822        12.53724        -0.92991
H          0.19201        14.56824        -0.46081
H          0.27322        17.02676        -0.73198
H          1.54181        19.12850        -0.91530
H          5.01077         0.23005        -1.40922
H          3.68693        20.35268        -0.85346
H          7.50886         0.26059        -1.64036
H          6.13680        20.34296        -0.82342
H         10.08457         0.37416        -1.45761
H          8.63102        20.32547        -0.72262
H         12.51938         0.46729        -1.08644
H         11.07659        20.31744        -0.47799
H         14.82092         0.39657        -0.50069
H         13.54768        20.31451        -0.30450
H         17.25835         0.34834        -0.16479
H         15.99683        20.32671        -0.10313
H         19.71147         0.33733         0.02360
H         18.46861        20.32538        -0.03420
H         22.18929         0.36304         0.07299
H         20.98712        20.24820        -0.27126
H         24.57330         0.43360        -0.12775
H         23.38217        20.09185        -0.67710
H         26.96952         0.64085        -0.80893
H         25.89931        19.95883        -1.09282
H         29.34695         0.69965        -1.28990
H         28.33441        19.90976        -1.20457
H         31.73023         0.87949        -2.03477
H         30.68813        18.77774        -2.38268
H         33.92669         1.16430        -2.88055
H         33.19067        19.93331        -1.33297
H         36.28074         1.96711        -3.94225
H         35.75511        19.90690        -1.54948
H         38.46491         2.66954        -4.80460
H         38.13677        19.76000        -2.07261
H         40.59471         3.86081        -4.51942
H         42.00049         5.50675        -3.35600
H         42.25815         7.16579        -1.58222
H         42.83243         7.86496         0.30809
H         42.92601        10.27389         0.72101
H         42.94790        12.30991         0.54826
H         42.87873        14.51335        -0.49993
H         42.74607        16.04391        -1.81016
H         40.53964        19.69061        -2.46590
H         42.68842        18.42754        -2.47877
