         272
 CSIRO Nanostructure Databank - Neutral Graphene Oxide Data Set
C        -11.24099         0.75759         0.18897
C        -10.01034         1.50222         0.57854
C         -8.72685         0.74960         0.61836
C         -7.43518         1.58425         0.66442
C         -6.18440         0.76763         0.36564
C         -4.92241         1.54789         0.04209
C         -3.63953         0.79909        -0.03038
C         -2.32108         1.47295        -0.27982
C         -1.26258         0.75802         0.55293
C          0.06626         1.51614         0.51067
C          1.31568         0.77347         0.84427
C          2.53285         1.47562         1.39023
C          3.85164         0.74783         1.26857
C          5.18187         1.48372         1.37353
C          6.50966         0.76616         1.23454
C          7.89357         1.57605         1.09961
C          9.04021         0.74453         0.45577
C         10.16414         1.51473        -0.23999
C         11.19754         0.63948        -0.90153
C         -9.92348         2.99287         0.50312
C         -8.80247         3.63472         0.10111
C         -7.61330         2.79507        -0.41168
C         -6.30735         3.62768        -0.61102
C         -4.97711         2.89700        -0.61062
C         -3.64763         3.61598        -0.75135
C         -2.31997         2.95192        -0.40058
C         -1.40755         3.67032         0.58947
C         -0.05705         2.97449         0.88501
C          1.18147         3.72588         1.28502
C          2.51186         2.98869         1.41526
C          3.80163         3.69580         1.15495
C          5.13412         2.96982         1.10181
C          6.32671         3.59428         0.45282
C          7.71853         2.96161         0.39802
C          8.56235         3.34127        -0.79393
C          9.68552         2.65757        -1.12561
C         -8.79544         5.15896        -0.05205
C         -7.44192         5.84821         0.10246
C         -6.28091         5.13675        -0.48775
C         -4.95334         5.85982        -0.57267
C         -3.65852         5.11744        -0.73472
C         -2.34108         5.84383        -0.47713
C         -1.28062         5.18884         0.37753
C         -0.07110         5.96886         0.83510
C          1.20854         5.27498         1.41164
C          2.53568         5.94044         0.93058
C          3.69910         5.05241         0.52171
C          4.85555         5.56835        -0.28319
C          6.14132         4.75671        -0.52970
C          7.41117         5.60903        -0.54804
C          8.62362         4.77656        -0.26303
C         -7.31570         7.10501         0.59838
C         -6.02139         7.84763         0.65314
C         -4.81883         7.22815         0.02115
C         -3.64051         8.06742        -0.44417
C         -2.31598         7.34053        -0.58807
C         -1.01741         8.11074        -0.32984
C          0.02428         7.49737         0.62664
C          1.28294         7.97227        -0.10439
C          2.55997         7.31998         0.34074
C          3.80266         7.89403        -0.29215
C          4.98515         7.03675        -0.53788
C          6.07731         7.47085        -1.51376
C          7.39142         6.87269        -1.01580
C         -5.97912         9.31955         0.86165
C         -4.86444        10.04608         0.64728
C         -3.63075         9.50193         0.00986
C         -2.34015        10.20062         0.20060
C         -1.11840         9.57612         0.03441
C          0.15312        10.22737         0.07982
C          1.36314         9.49620        -0.14266
C          2.56328        10.05629        -0.54658
C          3.64130         9.15503        -1.12887
C          5.00860         9.75544        -1.38045
C          6.08764         8.98565        -1.60476
C        -11.24963        -0.57026        -0.05333
C        -10.00254        -1.36944        -0.21263
C         -8.71217        -0.64898         0.04703
C         -7.50589        -1.52661         0.33874
C         -6.21018        -0.72148         0.17574
C         -5.01092        -1.35321        -0.47509
C         -3.68005        -0.66668        -0.34682
C         -2.44535        -1.46470        -0.11753
C         -1.17188        -0.70177         0.11413
C          0.07917        -1.42614         0.46495
C          1.22031        -0.71629         1.21249
C          2.53837        -1.41208         0.81667
C          3.82751        -0.64747         0.68851
C          5.16438        -1.33292         0.33484
C          6.44906        -0.72706         0.92574
C          7.67488        -1.47471         0.49676
C          8.95633        -0.73499         0.24265
C          9.81087        -1.42401        -0.82768
C         11.08542        -0.67632        -1.10823
C         -9.99485        -2.86676        -0.13253
C         -8.85308        -3.59492        -0.21795
C         -7.57987        -2.83867        -0.43557
C         -6.31527        -3.56586        -0.75115
C         -4.99864        -2.83895        -0.69684
C         -3.69638        -3.56684        -0.54430
C         -2.48639        -2.83398        -0.07972
C         -1.33348        -3.61111         0.47349
C         -0.03741        -2.89872         0.72466
C          1.26227        -3.66030         0.81705
C          2.54973        -2.90949         0.93356
C          3.86924        -3.62007         0.79056
C          5.14293        -2.85138         0.62387
C          6.35346        -3.63016         0.17040
C          7.60481        -2.87506        -0.07547
C          8.88607        -3.63716        -0.17560
C         10.00314        -2.88769        -0.49525
C         -8.79144        -5.12387        -0.09960
C         -7.61966        -5.78549        -0.89541
C         -6.30887        -5.06167        -0.58936
C         -5.01884        -5.80326        -0.47529
C         -3.71245        -5.06709        -0.59766
C         -2.46136        -5.80793        -0.33185
C         -1.32576        -5.15399         0.46170
C          0.00303        -5.72277        -0.04848
C          1.28781        -5.00134         0.15483
C          2.60357        -5.72877        -0.03417
C          3.83211        -5.15762         0.67475
C          5.13627        -5.76900         0.14886
C          6.42289        -5.09131         0.59655
C          7.66876        -5.81895         0.11657
C          8.85186        -5.05994        -0.12114
C         -7.48569        -7.28094        -0.62296
C         -6.31880        -7.98008        -0.61857
C         -4.96750        -7.30062        -0.80647
C         -3.78950        -8.05792        -0.11838
C         -2.50830        -7.31032        -0.13660
C         -1.20508        -7.80349        -0.72528
C          0.04472        -7.23238        -0.10202
C          1.31843        -7.99022        -0.15648
C          2.59435        -7.20406        -0.31311
C          3.88095        -7.97837        -0.37895
C          5.16461        -7.22835        -0.14452
C          6.38810        -7.97069         0.38945
C          7.63469        -7.20234         0.01188
C         -6.23872        -9.43824        -0.72833
C         -5.08908       -10.14566        -0.65536
C         -3.80164        -9.60696        -0.06549
C         -2.52520       -10.31810        -0.58839
C         -1.25923       -10.11347        -0.23665
C          0.02786       -10.18041         0.11213
C          1.26819        -9.51293        -0.54406
C          2.55824       -10.10894        -0.01179
C          3.84892        -9.51115        -0.29296
C          5.17488       -10.14702        -0.02956
C          6.32564        -9.45826         0.10014
O          2.76811         7.11111         1.76135
O         -2.78263        -5.44419        -1.68083
O          0.56140        -4.95988        -1.13008
O         -0.33122         8.12978        -1.66068
O         -1.82117         2.11139        -1.47845
O          7.18647        -1.52551         1.88824
O         -0.15677        -1.01341        -0.89623
O          1.01461         1.17904        -0.52571
O          3.26344         3.59573         2.50239
O         -9.18015        -0.79536        -1.30926
O         -1.22300         5.78535         1.71836
O         -7.91270         2.15049        -1.56619
O          3.11057         0.82088         2.54506
O         -4.27749         2.97773        -1.88289
O          3.70483         4.94706        -0.94423
O          0.27440         3.17066         2.29967
O          4.70321        -3.20923         1.95209
O         -6.54141         4.47717        -1.75843
O          3.90634        -8.76998        -1.57853
O         -0.95947        -3.15727         1.82618
O         -5.88156        -0.14073         1.47303
O         -3.90177         9.10050        -1.41287
O          2.67808        -6.20847        -1.39188
O          5.92387         1.05828         2.54136
O          5.30938        -6.23416        -1.21262
O         -7.12169        -2.95394        -1.80716
O         -9.47136         0.92217         1.86426
O         -4.76978        -7.41994        -2.18254
O          6.11034         4.25307        -1.83992
O          1.88123        -3.48010         2.11330
O         -4.41241        -0.71266        -1.63135
O          0.98342         7.52197        -1.45954
O          6.72028        -3.25808        -1.18288
O          4.92271         7.89557         0.63887
O          2.94578        -0.86330        -0.46951
O          8.48035         4.11869         1.07439
O          9.62475        -0.22053         1.40060
O         -4.33599         5.72699        -1.86769
O         -1.15338        -8.14015        -1.90600
O         -4.96692         7.17531         1.47533
O         -3.15755        -7.59462         1.13165
O          0.62369        -7.78744         1.11514
O         -4.17682        -3.12351        -1.85965
O         -4.07219         1.40699         1.23680
O          6.42905        -5.13314         2.08336
O         -2.01390         6.48155        -1.73448
O         -5.75317        -5.42781         0.73361
O          6.04955         3.81397         1.86967
O          5.80801         6.90288        -2.80702
H          5.84561         5.91028        -2.70966
O          3.12118         8.71664        -2.41318
H          3.23639         9.43689        -3.06650
O          8.98008        -1.36546        -2.02467
H          9.42442        -1.86238        -2.74279
O          1.16931         5.56583         2.81900
H          0.63262         4.86720         3.25605
O          0.95374        -0.84318         2.60222
H          1.66389        -0.38270         3.10611
O         -8.66315        -5.47389         1.28113
H         -7.75027        -5.26678         1.57724
O         -0.07944         8.09109         1.91897
H          0.45971         7.54963         2.54330
O         -3.89650        -9.99019         1.32576
H         -3.42782        -9.30004         1.85185
O          8.33904         1.85529         2.42128
H          7.59873         2.29073         2.90211
O          1.22428        -9.61964        -1.96019
H          0.41240        -9.15471        -2.28238
O         -9.76038         5.74931         0.81081
H         -9.50230         5.57506         1.73882
O         -7.58542        -1.95970         1.71487
H         -7.18827        -1.25088         2.27463
O         -1.67342         0.71672         1.92731
H         -2.03432         1.60141         2.18323
O          7.56726        -4.35520         2.53179
H          7.18473        -3.44931         2.69059
O          6.28256        -7.92401         1.84815
H          6.50333        -7.01226         2.16425
O         -2.19834         3.50469         1.79774
H         -1.80977         4.09939         2.48325
O         -1.50653        -5.61815         1.80537
H         -1.20682        -4.90341         2.41720
O         -7.28532         2.18145         1.93142
H         -8.11542         1.97517         2.43703
O          5.35537        -1.10813        -1.07079
H          4.49267        -1.22041        -1.53325
O         10.88097         2.23578         0.79708
H         10.21875         2.57442         1.44360
O          3.69724        -5.66861         2.02136
H          4.15464        -5.04442         2.63190
O         -7.92932        -5.63606        -2.29017
H         -7.18426        -5.99143        -2.82023
H         11.91145        -1.23459        -1.57654
H         12.13590         1.15117        -1.16474
H         10.47407         3.18656        -1.68602
H          9.59025         5.31983        -0.36684
H          8.32557         7.44901        -1.11857
H          7.04773         9.46793        -1.84915
H          5.08989        10.85149        -1.46037
H          2.65399        11.15140        -0.64074
H          0.19632        11.32402         0.17292
H         -2.37098        11.26352         0.48933
H         -4.86308        11.12043         0.88797
H         -6.87670         9.80572         1.27288
H         -8.21306         7.61819         0.97935
H         -9.13091         5.36603        -1.10583
H        -10.81429         3.57841         0.78561
H        -12.18951         1.31592         0.19907
H        -12.20743        -1.07803        -0.24588
H        -10.96469        -3.36990         0.00568
H         -9.75702        -5.55648        -0.46223
H         -8.43095        -7.84397        -0.54720
H         -7.16892        -9.96365        -0.99877
H         -5.12750       -11.23307        -0.82533
H         -2.71305       -11.18324        -1.25291
H          0.25881       -10.77105         1.02079
H          2.50940       -10.91309         0.73995
H          5.21373       -11.24553        -0.09433
H          7.26697       -10.01990         0.20325
H          8.54354        -7.74694        -0.28810
H          9.78308        -5.60795        -0.33412
H         10.98867        -3.36325        -0.61764
