         252
 CSIRO Nanostructure Databank - Neutral Graphene Oxide Data Set
C         30.50468        31.75497        -0.11885
C         30.57976        33.00290         0.09293
C         30.40572        35.95934         0.21469
C         30.57038        37.10074         0.67219
C         30.75319        40.10691         1.72394
C         30.69633        41.31453         2.03455
C         32.63230        28.74973        -0.68111
C         31.61028        29.46373        -0.54874
C         32.62802        31.54294        -1.23532
C         31.39090        30.83795        -0.67861
C         32.61698        33.08342        -1.28420
C         31.25657        33.82332        -1.02007
C         32.74951        35.99716        -0.51237
C         31.39941        35.28404        -0.64654
C         32.87688        37.27829         0.23086
C         31.73000        37.93297         0.82789
C         33.08437        39.96932         1.39544
C         31.79092        39.22417         1.32862
C         33.09988        41.46053         1.45546
C         31.72861        42.26606         1.46711
C         33.16608        44.03257         2.16863
C         32.01262        43.55860         2.21132
C         35.36253        27.39561         0.35609
C         35.24693        28.62081        -0.44048
C         33.98848        29.28261        -0.89099
C         35.18116        31.56103        -0.65966
C         33.95020        30.79309        -1.17596
C         35.22987        33.04608        -1.05224
C         33.94178        33.81400        -1.22846
C         35.19021        35.93349        -0.80381
C         33.98501        35.25217        -0.81216
C         35.24968        37.30106        -0.38462
C         34.13897        37.90658         0.24545
C         35.50032        40.04727         0.55313
C         34.31495        39.23050         0.89912
C         35.64352        41.38728         1.24192
C         34.31752        42.11533         1.47901
C         35.72253        44.13718         1.92696
C         34.44366        43.52076         1.83333
C         36.01541        45.35223         2.67654
C         37.67846        27.61392         1.15848
C         36.36663        26.94221         0.90176
C         37.67043        28.84214         0.19177
C         36.53257        29.40551        -0.31096
C         37.70469        31.62276        -0.46597
C         36.51456        30.79889        -0.97007
C         37.68606        33.10417        -0.66035
C         36.39998        33.74620        -1.06024
C         37.71277        35.93630        -1.35163
C         36.35818        35.22257        -1.47227
C         37.76839        37.35334        -0.86111
C         36.53569        38.03080        -0.36972
C         37.70878        40.31254        -0.56459
C         36.53311        39.50343        -0.14233
C         37.88197        41.65950        -0.00222
C         36.60673        42.32568         0.48525
C         38.27036        43.92743         1.67780
C         36.84973        43.54260         1.34686
C         38.41448        45.36855         2.20393
C         37.20408        45.71535         2.84008
C         40.23581        24.82290         1.80734
C         39.15472        25.50371         1.54234
C         40.25068        27.40462         0.80024
C         38.90773        26.74819         1.06616
C         40.27591        28.81479         0.29845
C         38.98878        29.46700        -0.10600
C         40.25387        31.71434        -0.14838
C         39.03007        30.92601        -0.44583
C         40.17150        33.13278        -0.38386
C         39.00392        33.77742        -0.77671
C         40.23068        36.01677        -0.88076
C         39.01502        35.21202        -1.13736
C         40.24126        37.40850        -0.93528
C         39.02427        38.11574        -1.03424
C         40.27406        40.30458        -1.01493
C         38.99274        39.56550        -1.04591
C         40.19512        41.83791        -1.06906
C         39.07221        42.37437        -0.12594
C         40.38446        44.45803         0.35126
C         39.25700        43.61676         0.56290
C         40.50439        45.73713         0.95136
C         39.52154        46.14284         1.93466
C         40.78834        48.18670         2.38831
C         39.80161        47.44731         2.48662
C         42.81929        25.03110         2.21972
C         41.47470        25.38896         1.91420
C         42.70556        27.71410         1.52082
C         41.45223        26.88527         1.55347
C         42.70719        29.02164         0.80625
C         41.48146        29.65953         0.48597
C         42.70574        31.81991         0.64295
C         41.43524        31.06516         0.24812
C         42.70023        33.28126         0.20616
C         41.42331        33.92140        -0.22308
C         42.79631        35.96513        -0.97003
C         41.49299        35.25765        -0.88459
C         42.80765        37.45026        -1.04688
C         41.52837        38.16711        -0.64594
C         42.71619        40.32685        -1.43040
C         41.45671        39.63142        -1.02420
C         42.71183        41.86543        -1.36829
C         41.54156        42.37370        -0.49625
C         42.79800        44.65695        -0.60389
C         41.50205        43.89793        -0.46387
C         42.83666        46.09039        -0.13470
C         41.61450        46.66145         0.55827
C         43.18601        48.44572         1.41779
C         41.70957        48.34925         1.25837
C         43.83344        25.74315         2.30622
C         45.00418        27.32036         0.61224
C         44.11247        27.15000         1.89447
C         45.16893        28.88679         0.41695
C         43.94267        29.64238         0.47494
C         45.14074        31.72483        -0.01712
C         43.96147        31.06431         0.24463
C         45.24163        33.20989         0.26197
C         43.98666        33.94774        -0.12427
C         45.28135        35.94701        -0.73284
C         44.03335        35.24883        -0.56199
C         45.26588        37.33204        -1.23804
C         43.98507        38.09518        -1.26207
C         45.34686        40.28531        -1.83453
C         43.99900        39.55554        -1.60264
C         45.22220        41.79839        -1.53648
C         44.05814        42.40732        -0.80788
C         45.26840        44.64091        -0.90233
C         44.08007        43.93354        -0.81685
C         45.30644        46.06001        -0.46418
C         44.19186        46.71041         0.00437
C         44.07959        47.95347         0.70705
C         47.46818        27.46681         0.57653
C         46.44422        26.83718         0.84489
C         47.67919        28.74171        -0.16477
C         46.34538        29.50071         0.04469
C         47.71701        31.69970        -0.20852
C         46.37297        30.94774        -0.23638
C         47.72360        33.18776        -0.09396
C         46.52369        33.88337        -0.17858
C         47.71310        36.06428        -0.35595
C         46.49801        35.30598        -0.45057
C         47.70668        37.44974        -0.44378
C         46.55912        38.13432        -1.07500
C         47.86916        40.25981        -1.01486
C         46.46557        39.65334        -0.94365
C         48.16499        41.47041        -1.58065
C         46.27484        42.60733        -1.82071
C         47.80104        44.49002        -1.20015
C         46.49161        43.94671        -1.31343
C         47.69431        45.86594        -0.77880
C         46.67367        46.48406        -0.43524
C         50.11961        28.98979         0.68601
C         48.87039        29.56114         0.26143
C         50.25154        31.70015         0.24970
C         48.92423        30.93963         0.19697
C         50.13295        33.20778         0.47765
C         48.97854        33.87553         0.07163
C         49.88568        36.06123         0.91932
C         49.04646        35.37696        -0.16987
C         49.86141        37.58800         0.84017
C         48.81964        38.23822         0.07243
C         49.95598        40.42975         0.39498
C         48.88789        39.60281        -0.21071
C         50.35214        41.73425        -0.24986
C         49.31466        42.33065        -1.22483
C         50.24795        44.37715        -0.70396
C         49.08675        43.82130        -1.21923
C         51.11769        29.57223         1.17479
C         52.28186        31.86336         1.60676
C         51.37371        30.95819         1.15870
C         52.27446        33.14668         1.48211
C         51.27834        33.95906         0.97839
C         52.00542        36.22406         2.04707
C         51.33911        35.45697         0.87409
C         51.84975        37.46217         2.06174
C         50.82604        38.31959         1.53357
C         52.01653        40.67393         1.69771
C         50.86310        39.78329         1.46262
C         52.07257        41.88263         1.39394
C         51.33245        42.64712         0.44617
C         51.24640        43.94833        -0.02214
O         47.11731        31.28210        -1.47064
O         34.02300        39.30828         2.34022
O         33.23397        33.57301        -2.49125
O         38.01934        40.14378        -1.97438
O         39.98431        42.33036        -2.33626
O         41.80580        27.73328         2.69577
O         38.51749        35.59836        -2.50649
O         46.17554        37.58174        -2.35660
O         39.11552        29.93249        -1.51106
O         37.46367        37.36701         0.61466
O         44.40519        26.81919        -0.45767
O         33.28785        31.04033        -2.42914
O         34.81993        28.54007        -1.81511
O         37.50521        32.45454         0.70595
O         49.66982        40.51342         1.84791
O         43.12099        39.82241        -2.75058
O         42.19539        35.31739        -2.17563
O         31.83013        36.11007        -1.72557
O         41.82320        46.89269        -0.85268
O         41.87013        34.05068         1.17863
O         40.53526        27.65072        -0.59748
O         47.34969        42.05845        -2.53475
O         50.56889        41.75313        -1.69247
O         41.83220        44.53656        -1.71431
O         52.00467        35.82048        -0.30273
H         52.71422        35.17533        -0.49704
O         44.19356        42.01951         0.60241
H         44.84839        41.27370         0.66836
O         49.30056        35.67606         2.17458
H         49.87210        36.01839         2.89631
O         45.30749        33.25758         1.73591
H         44.47773        32.84737         2.08878
O         30.49565        33.71886        -2.19533
H         29.91186        34.49920        -2.28663
O         41.63002        38.16772         0.82520
H         40.86342        38.66035         1.18949
O         31.40235        42.56610         0.13996
H         30.55256        43.05162         0.11089
O         37.68162        28.20225         2.46770
H         37.69940        27.48575         3.13684
O         49.73910        35.55254        -1.43022
H         49.16859        35.21119        -2.15022
O         36.01237        35.25648        -2.87494
H         36.83260        35.08921        -3.39278
O         41.22096        49.19523         0.29729
H         41.60442        48.94180        -0.57271
O         50.78845        31.60147        -1.08635
H         50.74757        30.66347        -1.37269
O         38.65306        43.05084         2.79542
H         37.93226        42.39355         2.94057
O         34.98133        31.52026         0.77377
H         35.77386        31.93896         1.19594
O         45.71428        40.09730        -3.19280
H         44.89962        40.19183        -3.73533
O         41.60727        41.86287         0.83912
H         42.54679        41.91412         1.15325
O         36.61867        30.68133        -2.38700
H         37.42949        30.16015        -2.59391
O         36.24041        41.11479         2.53265
H         35.66577        40.44744         2.97911
O         46.01792        39.92099         0.42722
H         46.73896        39.67937         1.04987
O         47.83877        28.47859        -1.55783
H         47.14675        27.83686        -1.82622
O         35.89112        42.72280        -0.71057
H         36.52433        43.12758        -1.34138
O         42.75936        31.83760         2.10216
H         42.13845        32.54759         2.39381
O         44.66460        27.94045         2.91999
H         44.05627        27.92400         3.68896
O         42.57272        42.35773        -2.69149
H         41.59005        42.39900        -2.89994
