         638
 CSIRO Nanostructure Databank - Neutral Graphene Oxide Data Set
C         23.08562        70.13773         1.55939
C         23.14583        71.63511         1.37123
C         21.97607        72.38358         1.48997
C         23.21742        74.45291         1.26997
C         22.01271        73.78964         1.42494
C         25.44244        65.85748         0.85411
C         25.47333        67.23785         0.76694
C         24.31410        68.02512         1.11074
C         25.55959        70.11608         0.86747
C         24.33744        69.39702         1.14054
C         25.59418        71.54320         0.94705
C         24.38375        72.29414         1.16479
C         25.67630        74.39132         0.99335
C         24.42894        73.72266         1.13691
C         27.92230        61.46645         0.48456
C         27.88737        62.84370         0.44477
C         26.58651        63.55137         0.78407
C         27.86571        65.75247         0.09981
C         26.56067        65.02531         0.40201
C         27.86580        67.21807         0.20476
C         26.70449        67.94073         0.42933
C         27.94838        70.11041         0.35159
C         26.73441        69.39621         0.51870
C         28.01572        71.50486         0.54973
C         26.81969        72.23757         0.78602
C         28.13437        74.34011         0.72656
C         26.87024        73.67871         0.84782
C         30.38101        57.10607         0.32426
C         30.34572        58.54897         0.24633
C         29.13672        59.28137         0.35352
C         30.35009        61.38534         0.07082
C         29.13075        60.68893         0.28557
C         30.36794        62.84936         0.24152
C         29.10344        63.60321         0.25606
C         30.38836        65.70485        -0.01802
C         29.14783        64.99588         0.15664
C         30.42264        67.18951         0.25506
C         29.13539        67.90682        -0.08018
C         30.49301        70.05775         0.22383
C         29.18376        69.40341        -0.01823
C         30.48595        71.45133         0.51712
C         29.29398        72.17886         0.55390
C         30.59707        74.28866         0.48000
C         29.33212        73.63187         0.62037
C         32.79845        52.78665        -0.08196
C         32.72537        54.19800        -0.18452
C         31.57010        54.92990         0.12900
C         32.83716        57.06920         0.01642
C         31.54514        56.35965         0.15935
C         32.82891        58.56692        -0.08793
C         31.53883        59.27095        -0.02224
C         32.80720        61.36864        -0.44930
C         31.55338        60.67756        -0.14061
C         32.78170        62.83222        -0.63289
C         31.63621        63.59800        -0.08140
C         32.85560        65.76632        -0.36597
C         31.59829        65.05878        -0.26318
C         32.91803        67.13098        -0.13774
C         31.64470        67.90961        -0.35878
C         32.95645        69.95288         0.39279
C         31.68588        69.33438         0.13693
C         33.01005        71.35097         0.60174
C         31.76583        72.13080         0.92685
C         33.05788        74.20514         0.35363
C         31.80953        73.58424         0.50839
C         35.29516        48.54874         0.38703
C         35.25636        49.94561         0.08012
C         34.05428        50.65807         0.07636
C         35.26416        52.74267        -0.36829
C         34.01095        52.06116        -0.17138
C         35.26826        54.15713        -0.74332
C         33.92689        54.92340        -0.66189
C         35.22443        57.04244        -0.74006
C         34.01488        56.36408        -0.50755
C         35.23572        58.49524        -0.82981
C         33.91197        59.19804        -0.92999
C         35.23596        61.37752        -0.93503
C         33.97258        60.69400        -0.75389
C         35.30860        62.78908        -0.79989
C         34.07355        63.57804        -0.86823
C         35.33747        65.64900        -0.05380
C         34.14510        65.10005        -0.80650
C         35.36724        66.97121         0.30740
C         34.16239        67.79328         0.15864
C         35.39342        69.83514         1.01841
C         34.16436        69.16607         0.42754
C         35.45832        71.30426         0.64543
C         34.25058        72.03572         0.57517
C         35.52001        74.14328         0.50165
C         34.28329        73.48366         0.46580
C         37.72617        44.21654         0.57704
C         37.76542        45.72360         0.49639
C         36.55687        46.43775         0.58097
C         37.69832        48.45899        -0.32379
C         36.47870        47.82465         0.31453
C         37.72405        49.96605        -0.21099
C         36.51411        50.64910        -0.12615
C         37.73979        52.80556        -0.28033
C         36.48855        52.08024        -0.25278
C         37.74153        54.23090        -0.40519
C         36.51431        54.93055        -0.61501
C         37.72598        57.14299        -0.61707
C         36.46329        56.32272        -0.73572
C         37.59724        58.37972        -1.52660
C         36.39684        59.19617        -1.09702
C         37.70970        61.32145        -1.07137
C         36.43732        60.63304        -1.09329
C         37.75344        62.72653        -0.69557
C         36.54239        63.42965        -0.54168
C         37.86634        65.46634         0.28798
C         36.53277        64.78824         0.05432
C         37.90698        66.90440         0.59291
C         36.59853        67.57080         0.99599
C         37.97990        69.76302         0.73420
C         36.65929        69.06188         0.79164
C         37.84450        71.23403         1.12727
C         36.68318        71.98340         0.74571
C         37.95204        74.10206         0.97101
C         36.72899        73.43502         0.73610
C         40.32829        40.11775         1.41366
C         40.31642        41.50320         1.34099
C         39.08664        42.23329         1.21844
C         40.25503        44.35866         0.88451
C         39.05699        43.58827         0.92648
C         40.24245        45.71772         0.52355
C         38.99908        46.38210         0.32268
C         40.23142        48.48724        -0.41465
C         38.99789        47.88837         0.27063
C         40.22868        49.98954        -0.18306
C         38.97984        50.67548        -0.20345
C         40.19698        52.86559         0.20629
C         38.95175        52.10017        -0.14711
C         40.22474        54.26729        -0.34910
C         39.00038        54.94338        -0.50217
C         40.19770        56.99295        -1.06508
C         38.99071        56.33735        -0.81405
C         40.18392        58.42719        -1.43765
C         38.89852        59.17716        -1.59301
C         40.19732        61.23701        -0.81106
C         38.90018        60.62180        -1.27791
C         40.22028        62.73811        -0.90520
C         39.01915        63.42380        -0.62162
C         40.26383        65.53842        -0.25608
C         39.07249        64.81285        -0.23710
C         40.34123        66.85918         0.28149
C         39.12562        67.53257         0.72812
C         40.48666        69.56356         1.35205
C         39.12561        68.90832         1.40836
C         40.70254        70.82827         1.88457
C         38.83165        71.98033         1.73957
C         40.38596        73.88229         1.53402
C         39.06906        73.37342         1.46153
C         42.86136        35.83672         1.83114
C         42.87042        37.32793         2.04846
C         41.57138        38.03339         1.76782
C         42.81618        40.12258         1.32849
C         41.56020        39.38066         1.48707
C         42.76627        41.56331         1.23068
C         41.56810        42.23723         1.28240
C         42.76954        44.46123         1.07041
C         41.50201        43.74240         1.46211
C         42.76313        45.76056         0.64549
C         41.49867        46.47206         0.40159
C         42.76558        48.54257        -0.30331
C         41.50216        47.78662         0.01242
C         42.73961        49.97235         0.28802
C         41.45785        50.71657        -0.04864
C         42.75223        52.85586         0.26638
C         41.47344        52.09512         0.00911
C         42.69887        54.26270        -0.29111
C         41.47968        54.94530        -0.50166
C         42.65693        57.07620        -1.15794
C         41.44843        56.33530        -0.91473
C         42.65810        58.42638        -1.49036
C         41.45025        59.19057        -1.37921
C         42.61075        61.35921        -1.81709
C         41.42807        60.55999        -1.34818
C         42.65366        62.76989        -1.29238
C         41.46265        63.42619        -0.99474
C         42.79105        65.42109        -0.30757
C         41.48199        64.94246        -0.93477
C         42.81367        66.91389        -0.11647
C         41.61362        67.51468         0.31329
C         42.97626        69.63572         0.78623
C         41.68943        68.84403         0.92780
C         42.93601        71.10259         0.97780
C         41.77951        71.69623         1.57548
C         42.80170        73.89990         1.32863
C         41.64346        73.16230         1.56417
C         45.34978        33.06322         1.86633
C         44.12901        33.72447         1.78129
C         45.32734        35.89218         1.73389
C         44.06772        35.15281         1.75800
C         45.32559        37.28513         1.57953
C         44.01431        37.94875         1.23538
C         45.29118        40.16737         1.32431
C         44.03338        39.45566         1.32289
C         45.30331        41.56532         1.21520
C         44.03081        42.30248         0.86013
C         45.30386        44.43518         0.97654
C         44.04643        43.73056         1.41298
C         45.27862        45.79380         0.62256
C         44.02309        46.48415         0.44896
C         45.25306        48.56057        -0.03977
C         44.02468        47.82275         0.09755
C         45.20267        49.96762        -0.27954
C         44.00510        50.72011        -0.10130
C         45.32453        52.85786        -0.04893
C         44.00619        52.10722        -0.13458
C         45.25753        54.28400        -0.54453
C         43.97228        54.99343        -0.40936
C         45.20395        57.07714        -1.29707
C         43.94922        56.43784        -0.84409
C         45.18590        58.45035        -1.58958
C         43.90145        59.14062        -1.94237
C         45.10896        61.32693        -1.72575
C         43.90720        60.61846        -1.65361
C         45.09167        62.77113        -1.72820
C         43.91696        63.47495        -1.37909
C         45.19900        65.60048        -1.16979
C         43.98643        64.85413        -1.03311
C         45.22139        67.02577        -0.82085
C         44.04195        67.63387        -0.25866
C         45.21405        69.80487        -0.27051
C         44.09374        69.02853         0.03975
C         45.13575        71.27107        -0.12112
C         44.03593        71.86717         0.64745
C         45.30077        74.04897         0.77233
C         44.14723        73.22997         1.28019
C         46.55667        33.76734         1.92941
C         47.77649        35.92443         1.88498
C         46.57119        35.18637         1.86074
C         47.77240        37.32440         1.78365
C         46.53240        38.02381         1.61395
C         47.75275        40.17318         1.55350
C         46.52951        39.45531         1.49515
C         47.75704        41.59570         1.40087
C         46.52595        42.28827         1.24204
C         47.75509        44.41437         0.84760
C         46.51935        43.71697         1.02565
C         47.74376        45.79550         0.56974
C         46.51527        46.49690         0.40638
C         47.75869        48.69561         0.15326
C         46.48838        47.88134         0.08713
C         47.71232        49.96853        -0.64802
C         46.39303        50.64166        -0.90357
C         47.66535        52.76957        -0.90691
C         46.49483        52.11921        -0.64417
C         47.75465        54.26268        -0.68292
C         46.41463        54.95689        -0.86183
C         47.65362        57.04909        -1.47299
C         46.41599        56.35453        -1.22782
C         47.65381        58.47752        -1.57465
C         46.39391        59.19747        -1.64879
C         47.63822        61.34967        -1.98616
C         46.35587        60.60337        -1.73070
C         47.57487        62.81904        -1.52147
C         46.33994        63.53218        -2.09898
C         47.57950        65.71486        -1.95174
C         46.34301        64.96901        -1.66083
C         47.58892        67.17991        -1.63170
C         46.37870        67.79574        -1.03529
C         47.60295        69.98348        -0.93448
C         46.40636        69.20572        -0.77679
C         47.63580        71.35329        -0.60587
C         46.38109        72.08554        -0.33443
C         47.65626        74.16733         0.10450
C         46.41597        73.47188         0.20924
C         48.98800        38.08286         1.84191
C         50.28568        40.20599         1.91857
C         48.98697        39.45365         1.73904
C         50.26293        41.61282         1.37153
C         49.00100        42.31533         1.27721
C         50.23527        44.34509         0.60968
C         48.99752        43.68196         0.96319
C         50.21459        45.67048         0.22488
C         49.05230        46.54563         0.60317
C         50.11713        48.46154        -0.61874
C         49.01456        47.89489        -0.07875
C         50.10572        49.80679        -1.30919
C         48.86561        50.61129        -1.01894
C         50.12338        52.71412        -1.36698
C         48.88785        52.04072        -1.22762
C         50.14913        54.15185        -1.42425
C         48.82229        54.84926        -1.61490
C         50.10675        57.04706        -1.48505
C         48.88039        56.35126        -1.50477
C         50.10308        58.48092        -1.45099
C         48.87429        59.16836        -1.56473
C         50.15681        61.34335        -1.83075
C         48.86511        60.66044        -1.36127
C         50.08854        62.85203        -1.62881
C         48.89872        63.52257        -1.75862
C         50.12938        65.72109        -1.63795
C         48.91107        64.97799        -2.17161
C         50.08262        67.16764        -1.53143
C         48.89818        67.86187        -1.47567
C         50.13259        70.01618        -1.01286
C         48.86181        69.37175        -1.52714
C         50.10338        71.40059        -0.65827
C         48.85936        72.07950        -0.51240
C         50.08741        74.18554        -0.08030
C         48.84879        73.49294        -0.19013
C         51.44421        42.23275         1.04162
C         52.69104        44.24851         0.33162
C         51.48804        43.60177         0.60945
C         52.72326        45.60956        -0.10434
C         51.42077        46.25861        -0.36663
C         52.64549        48.45217        -0.82515
C         51.38371        47.69946        -0.77608
C         52.61061        49.84314        -1.03897
C         51.40750        50.57013        -1.18022
C         52.59924        52.72739        -1.41373
C         51.38817        51.99063        -1.35765
C         52.60481        54.15272        -1.29163
C         51.34056        54.86601        -1.34967
C         52.52720        57.04980        -1.15332
C         51.34598        56.32446        -1.35547
C         52.51397        58.46802        -1.09912
C         51.32834        59.20807        -1.23870
C         52.47544        61.39776        -0.92557
C         51.34691        60.65717        -1.21406
C         52.50824        62.84897        -1.12802
C         51.34592        63.56847        -1.46911
C         52.57266        65.74941        -1.22549
C         51.32886        65.02292        -1.47313
C         52.60613        67.15591        -1.24883
C         51.38366        67.93684        -1.67293
C         52.57297        70.01691        -0.83090
C         51.33943        69.33219        -1.08411
C         52.55232        71.41621        -0.58532
C         51.33538        72.10221        -0.48510
C         52.53270        74.21000         0.06319
C         51.31254        73.52900        -0.19572
C         53.88405        46.33587        -0.31323
C         55.09641        48.45208        -0.59347
C         53.88783        47.74228        -0.63397
C         55.13930        49.87177        -0.77589
C         53.91674        50.47755        -1.45107
C         55.12198        52.74918        -1.06847
C         53.88978        51.99969        -1.45162
C         55.05583        54.22389        -0.96778
C         53.80722        54.87798        -1.11022
C         55.04451        57.08614        -1.10073
C         53.78356        56.33372        -0.70789
C         55.03040        58.44246        -1.11394
C         53.76516        59.17299        -0.75400
C         54.95360        61.44178        -0.47382
C         53.69541        60.66988        -0.49561
C         54.94517        62.84075        -0.75138
C         53.75659        63.56144        -0.94784
C         54.98164        65.73390        -0.80268
C         53.77765        65.01365        -0.98544
C         55.01995        67.14260        -0.79366
C         53.80856        67.87022        -0.97252
C         55.02256        69.96947        -0.41044
C         53.81381        69.29798        -0.80213
C         55.03970        71.38382        -0.21123
C         53.84581        72.19178        -0.64473
C         54.95084        74.18318         0.41210
C         53.76877        73.55543         0.00433
C         56.27173        50.59435        -0.48605
C         57.52488        52.85231        -0.45408
C         56.23523        52.08698        -0.29547
C         57.50928        54.20509        -0.71364
C         56.26938        54.90863        -0.98016
C         57.59135        57.02267        -1.46894
C         56.25035        56.28865        -1.60400
C         57.58695        58.52601        -1.47972
C         56.19786        59.11371        -1.80285
C         57.41553        61.35110        -0.65336
C         56.15503        60.83043        -0.10468
C         57.48208        62.82082        -0.89467
C         56.22813        63.55166        -0.54725
C         57.55573        65.72915        -0.88919
C         56.25100        65.02836        -0.54381
C         57.47642        67.13192        -0.35091
C         56.25929        67.82433        -0.45601
C         57.40481        69.88602         0.27460
C         56.21995        69.22957        -0.18510
C         57.39063        71.30123         0.49626
C         56.18852        72.03936         0.24261
C         57.34976        74.11384         0.91496
C         56.17981        73.47340         0.49913
C         58.74579        54.98098        -0.67458
C         60.09394        57.07285        -1.02347
C         58.78473        56.30710        -0.94955
C         59.96760        58.51709        -0.56224
C         58.71962        59.24736        -0.81146
C         59.82626        61.33542        -0.03538
C         58.65721        60.57802        -0.47397
C         59.92088        62.68352        -0.23076
C         58.84641        63.50874        -0.93655
C         59.84600        65.55780         0.18004
C         58.76857        64.94008        -0.44245
C         59.76879        66.95940         0.52754
C         58.62963        67.73227         0.23106
C         59.75892        69.80304         1.00925
C         58.58332        69.14222         0.53948
C         59.75919        71.22728         1.16259
C         58.56562        71.96662         0.92180
C         59.73864        74.04540         1.52336
C         58.56376        73.39816         1.11813
C         61.00462        59.13362         0.06183
C         62.17538        61.25415         0.85397
C         60.88200        60.51737         0.67128
C         62.28323        62.60752         0.68180
C         61.23502        63.40787        -0.05944
C         62.20087        65.46605         0.97013
C         61.07279        64.82437         0.46680
C         62.17816        66.86857         1.29188
C         60.84274        67.55845         1.39464
C         62.11793        69.71790         1.66787
C         60.93107        69.06017         1.29794
C         62.13093        71.14784         1.80654
C         60.94383        71.89249         1.57544
C         62.12632        73.97007         2.14920
C         60.94343        73.32493         1.75267
C         63.45321        63.32535         1.07925
C         64.60393        65.42328         1.58459
C         63.44581        64.72370         1.17958
C         64.59333        66.81813         1.79395
C         63.33961        67.54239         1.65630
C         64.51359        69.64245         2.23856
C         63.33197        68.97223         1.88488
C         64.51645        71.06859         2.41950
C         63.32433        71.81386         2.20128
C         64.51603        73.88851         2.76767
C         63.32480        73.24357         2.37502
C         65.75512        67.50709         2.18544
C         66.91458        69.58832         2.79816
C         65.74886        68.90589         2.41566
C         66.91962        70.99379         3.00295
C         65.70879        71.73740         2.80111
C         66.91455        73.80461         3.37246
C         65.70674        73.15990         2.98200
C         68.09233        71.68196         3.38852
C         68.07766        73.07000         3.57050
O         56.02280        59.85429        -2.75053
O         42.70838        68.88618         2.02466
O         31.33210        63.24180         1.31199
O         54.88793        52.42486        -2.47305
O         53.63217        59.71070         0.63849
O         26.97178        65.26374        -0.97752
O         51.26215        46.64172        -1.80469
O         39.68144        71.38396         2.65690
O         39.63596        58.74466        -2.80466
O         57.26357        61.92559        -2.01633
O         34.47248        54.44072        -1.93279
O         37.15449        64.74810         1.39974
O         45.38934        71.96371        -1.41657
O         33.21713        57.94754         1.16469
O         57.98277        57.77071        -2.68057
O         47.35052        66.71993        -3.02624
O         44.04735        56.10281         0.59194
O         33.18398        63.20627        -1.99206
O         56.30334        64.28848         0.72898
O         29.09056        68.68365        -1.32298
O         41.37611        43.91974         2.92177
H         42.22823        43.59538         3.30480
O         59.21698        63.57827        -2.35957
H         58.81296        62.78017        -2.78432
O         33.46190        58.97545        -2.31165
H         34.18739        59.24824        -2.91333
O         47.80435        61.30816        -3.43202
H         47.26298        62.04075        -3.82197
O         45.62325        52.98373         1.39211
H         44.78646        53.29227         1.82148
O         51.38764        39.46212         1.39007
H         51.25509        39.36229         0.42530
O         44.01539        42.43984        -0.59227
H         43.95919        41.54138        -0.97960
O         42.81098        48.70515        -1.76113
H         43.67354        49.11958        -1.99066
O         57.61178        65.84185        -2.34749
H         58.21395        65.13470        -2.68554
O         21.93380        69.58656         0.90517
H         22.03458        69.72640        -0.05852
O         38.74003        68.74697         2.78345
H         39.48151        68.33485         3.27246
O         43.82502        59.06927        -3.43866
H         44.68506        59.39981        -3.78048
O         36.70901        43.77078         1.48281
H         37.00838        43.96159         2.39519
O         60.39214        67.29200         2.78821
H         61.06588        67.68072         3.38661
O         43.13092        37.52827         3.47502
H         43.91626        36.98927         3.71027
O         42.41561        61.49975        -3.28166
H         42.58471        60.60343        -3.66504
O         47.32154        62.89304        -0.09527
H         48.01818        62.35266         0.35631
O         26.34706        63.42512         2.19811
H         27.17370        63.63944         2.67728
O         51.52381        68.15615        -3.11754
H         50.71470        68.63843        -3.40871
O         37.55492        48.11394        -1.72327
H         38.41530        48.29716        -2.17268
O         31.72532        72.15877         2.40439
H         30.95620        72.71155         2.66105
O         49.99968        49.51167        -2.74657
H         50.74328        48.91369        -2.98098
O         42.82612        64.84514         1.03609
H         43.62613        65.18217         1.49139
O         46.14819        50.49062        -2.36332
H         46.96335        50.78384        -2.82736
O         60.37778        60.27223         2.03458
H         59.49787        59.84696         1.95045
O         44.10615        43.60594         2.87329
H         44.32943        44.48852         3.23804
O         61.12357        56.39890        -0.30644
H         60.88774        56.38657         0.64344
O         47.83149        49.16679         1.54905
H         48.26826        48.44917         2.07050
O         55.83795        52.27573         1.11720
H         56.55773        51.91606         1.67749
O         44.51965        72.95741         2.70226
H         43.75803        72.49110         3.11147
O         42.84803        52.97462         1.76242
H         42.88566        52.04259         2.09225
O         40.23885        60.93951         0.64632
H         39.51745        61.45025         1.07388
O         38.41999        69.81763        -0.67247
H         37.71629        70.25942        -1.19409
O         36.39251        67.29095         2.43130
H         36.56475        66.32343         2.54057
O         41.47597        65.41947        -2.30873
H         40.73706        64.98397        -2.78265
O         34.35783        65.52930        -2.18682
H         33.70432        65.03891        -2.73575
O         56.23014        59.79677         0.76110
H         55.29616        59.59224         1.06619
O         48.16141        54.48805         0.68689
H         47.47492        54.06770         1.25731
O         35.18189        69.82026         2.48097
H         35.51514        68.95055         2.81273
O         42.75275        49.89006         1.74295
H         41.91841        49.45528         2.02502
O         37.79969        57.66206         0.74588
H         37.88014        56.90145         1.35919
O         48.84001        69.69315        -2.97079
H         48.52268        70.61707        -3.06493
O         54.03633        50.06217        -2.84824
H         54.64070        50.71380        -3.27595
O         54.06473        72.46147        -2.07895
H         53.29791        72.98428        -2.39642
O         31.53566        67.93031        -1.80564
H         30.67304        68.36015        -2.03452
O         39.09557        48.34159         1.65234
H         38.33210        47.97146         2.14443
O         61.78881        63.55706        -1.41006
H         61.04105        63.78482        -2.01458
O         49.28024        46.86680         2.04489
H         49.20972        46.02380         2.54383
O         43.73780        37.62473        -0.16380
H         44.52652        37.87182        -0.69001
O         49.11953        64.93267        -3.61844
H         48.77239        65.78579        -3.97175
O         56.01093        56.07866        -3.02111
H         56.54410        56.75116        -3.50745
O         50.37561        61.14718        -3.24699
H         49.54119        61.40012        -3.71592
O         37.26523        57.92341        -2.85510
H         38.10159        57.95165        -3.38152
O         46.43402        63.55367        -3.56149
H         45.75290        64.17114        -3.90373
O         48.85119        60.81638         0.09228
H         48.22574        60.15851         0.46425
O         30.51736        67.30159         1.70586
H         31.27659        66.75874         2.00759
O         40.15069        48.27725        -1.85620
H         41.05222        48.46571        -2.22020
O         40.10691        53.05801         1.68080
H         41.01549        53.31774         1.98125
O         48.36363        54.53616        -2.96488
H         49.02384        54.88632        -3.59903
O         53.76156        56.35182         0.75951
H         52.90617        55.96996         1.05022
H         23.24847        75.55166         1.24374
H         25.69686        75.49133         1.00450
H         28.15690        75.44004         0.74302
H         30.61032        75.38052         0.33902
H         33.09915        75.29057         0.17244
H         35.54580        75.24241         0.46021
H         38.02675        75.18687         0.80647
H         40.49127        74.96070         1.32507
H         42.74162        74.99541         1.24278
H         45.37048        75.08852         1.12993
H         47.70115        75.22498         0.40472
H         50.07221        75.25774         0.16584
H         52.49210        75.25671         0.40188
H         54.91642        75.23006         0.75138
H         57.33273        75.19776         1.10407
H         59.73264        75.13619         1.66780
H         62.12846        75.06207         2.28377
H         64.51904        74.98017         2.90500
H         66.91801        74.89483         3.51481
H         22.93233        69.94671         2.66030
H         21.01915        71.86407         1.63922
H         21.07824        74.36044         1.51902
H         24.56188        65.35905         1.28594
H         23.37622        67.49981         1.34489
H         26.98954        60.91884         0.68827
H         25.73411        63.03460         0.27246
H         29.42558        56.57584         0.45692
H         28.19190        58.74542         0.52808
H         31.88296        52.23559         0.18255
H         30.64806        54.38358         0.38058
H         34.36688        48.04946         0.70600
H         33.11180        50.12316         0.26767
H         37.42361        43.83910        -0.44136
H         35.64290        45.88326         0.84401
H         39.37751        39.56547         1.45610
H         38.13829        41.67658         1.25449
H         41.91893        35.27641         1.93101
H         40.62524        37.50704         1.96839
H         45.36649        31.96449         1.90151
H         43.19099        33.15134         1.76726
H         47.50809        33.22357         2.01556
H         48.73414        35.39205         1.98372
H         49.94187        37.55408         1.98622
H         50.47112        40.28737         3.02940
H         52.38408        41.66450         1.11024
H         53.63973        43.70523         0.45774
H         54.85758        45.84318        -0.16644
H         56.01608        47.92658        -0.29257
H         57.15629        50.05790        -0.10227
H         58.47610        52.35335        -0.21083
H         59.67648        54.46444        -0.39323
H         60.40713        57.08481        -2.10348
H         61.91777        58.55510         0.27358
H         63.00224        60.70314         1.32963
H         64.34329        62.76589         1.40589
H         65.53892        64.86459         1.74103
H         66.69448        66.94809         2.31180
H         67.84911        69.02368         2.93526
H         69.02253        71.11693         3.54427
H         69.00116        73.58484         3.87124
