         276
 CSIRO Nanostructure Databank - Neutral Graphene Oxide Data Set
C        -11.01735         0.63046         0.23567
C        -10.03047         1.43352         1.09341
C         -8.69931         0.69485         1.24939
C         -7.43496         1.32377         0.79159
C         -6.18729         0.82431         1.52420
C         -4.97160         1.46562         0.88318
C         -3.68339         0.77347         0.69399
C         -2.40273         1.52595         0.76627
C         -1.25161         0.85189         0.52780
C          0.10149         1.44138         0.86157
C          1.09050         1.10170        -0.30305
C          2.47770         1.70555        -0.03293
C          3.79326         1.00534        -0.30253
C          5.02402         1.54370         0.38404
C          6.14697         0.62949         0.83083
C          7.48725         1.35933         1.08367
C          8.74948         0.56317         1.11198
C         10.02412         1.26904         0.56332
C         11.24677         0.47702         0.96599
C         -9.87725         2.82957         0.50325
C         -8.73482         3.41994         0.09086
C         -7.43916         2.69184         0.18926
C         -6.14345         3.51135         0.06841
C         -5.01676         2.95248         0.93365
C         -3.71826         3.70304         1.05835
C         -2.41373         2.93967         1.33372
C         -1.16283         3.67801         0.86970
C          0.03918         2.96163         0.96940
C          1.31835         3.73181         1.18694
C          2.59483         2.81898         1.02628
C          3.81073         3.64745         0.62447
C          5.04519         2.87129         0.70308
C          6.27999         3.62459         1.04719
C          7.55506         2.86738         1.02414
C          8.84378         3.55059         0.47616
C          9.98118         2.70809         0.97444
C         -8.73300         4.77895        -0.61793
C         -7.49901         5.65179        -0.36989
C         -6.29852         5.00579         0.23969
C         -4.97962         5.75497         0.25678
C         -3.71292         5.04788         0.49287
C         -2.45826         5.80279         0.49204
C         -1.18712         5.06910         0.61167
C          0.03759         5.72081         0.13386
C          1.34298         5.00042         0.36143
C          2.62001         5.83673         0.43805
C          3.83497         4.95045         0.26301
C          5.18313         5.54881        -0.13547
C          6.22932         5.14243         0.92107
C          7.57970         5.79223         0.63613
C          8.87118         5.03103         0.94399
C         -7.48357         6.97715        -0.64304
C         -6.23308         7.83597        -0.43975
C         -5.00356         6.92532        -0.71521
C         -3.67508         7.67441        -0.84330
C         -2.47144         7.23331        -0.06335
C         -1.19287         7.91267        -0.42795
C          0.06442         7.21413        -0.05024
C          1.36759         7.89655        -0.29838
C          2.57096         7.00109        -0.58298
C          3.87612         7.78475        -0.56868
C          5.14958         7.06353        -0.31215
C          6.30412         7.90565         0.24874
C          7.58924         7.09463         0.27421
C         -6.17115         9.05925        -1.33688
C         -5.01919         9.63137        -1.72497
C         -3.67833         9.04926        -1.41940
C         -2.46634         9.94348        -1.20788
C         -1.18042         9.15744        -0.96851
C          0.09662         9.90589        -1.33784
C          1.40518         9.25765        -0.90788
C          2.59529         9.89458        -0.98279
C          3.82969         9.29981        -0.32023
C          5.17100         9.87617        -0.74985
C          6.32076         9.22930        -0.49051
C        -11.19576        -0.70989         0.21359
C        -10.37597        -1.66557         0.96147
C         -8.63724        -0.55759         1.76369
C         -7.42181        -1.42945         1.77991
C         -6.11961        -0.71203         1.61126
C         -4.93863        -1.44781         0.96419
C         -3.62551        -0.68005         1.05981
C         -2.35864        -1.36743         0.69662
C         -1.40707        -0.51620        -0.13494
C         -0.12277        -1.25781        -0.55987
C          1.14433        -0.40482        -0.65803
C          2.45157        -1.11106        -0.90792
C          3.83015        -0.37178        -1.00229
C          5.12671        -1.18443        -0.73351
C          6.35407        -0.55341        -0.10332
C          7.58923        -1.40245         0.05113
C          8.67953        -0.97393         1.02609
C         10.00080        -1.62972         0.67447
C         11.22220        -0.87452         0.92690
C         -9.94478        -2.86816         0.50697
C         -8.77799        -3.63851         1.03105
C         -7.51465        -2.93375         1.50446
C         -6.20015        -3.56675         1.03965
C         -4.86941        -2.92063         1.48882
C         -3.59710        -3.62239         0.95325
C         -2.35915        -2.86227         0.56168
C         -1.39149        -3.57316        -0.41134
C         -0.09895        -2.77924        -0.73083
C          1.24433        -3.52345        -0.90406
C          2.47584        -2.63313        -0.89101
C          3.73368        -3.15795        -0.20224
C          5.08840        -2.67284        -0.64621
C          6.20213        -3.47062        -0.47981
C          7.55050        -2.86652        -0.30964
C          8.74319        -3.67496         0.07787
C          9.98730        -2.94407         0.30629
C         -8.68165        -5.04191         0.52433
C         -7.50356        -5.70121         0.33141
C         -6.23689        -4.92476         0.39893
C         -4.95979        -5.62971         0.02370
C         -3.67959        -5.07691         0.54960
C         -2.40291        -5.79849         0.29348
C         -1.13621        -4.96713         0.14323
C          0.14370        -5.69263        -0.12382
C          1.34799        -5.04329        -0.73977
C          2.43790        -5.82419        -1.09545
C          3.82246        -5.32042        -1.37467
C          4.88811        -5.75796        -0.59321
C          6.09986        -4.95102        -0.24294
C          7.39288        -5.73649        -0.00232
C          8.68970        -5.03076         0.05346
C         -7.41961        -7.12019         0.04030
C         -6.25662        -7.77657        -0.29251
C         -4.98395        -7.03056        -0.50639
C         -3.69126        -7.79471        -0.85110
C         -2.40997        -7.15502        -0.31888
C         -1.25571        -7.86429        -0.30238
C          0.04663        -7.19588         0.00667
C          1.28328        -7.99626        -0.16782
C          2.41145        -7.35577        -0.98019
C          3.74408        -7.97931        -0.62702
C          4.94749        -7.20017        -0.23955
C          6.25340        -7.88843        -0.44974
C          7.40811        -7.17483        -0.33350
C         -6.19469        -9.22198        -0.29594
C         -5.01879        -9.90956        -0.34034
C         -3.72981        -9.27092        -0.51551
C         -2.56305        -9.96426        -0.54711
C         -1.25473        -9.27966        -0.88565
C         -0.06206       -10.08353        -0.44360
C          1.12446        -9.49351        -0.18142
C          2.98919        -9.02006        -2.51238
C          3.92176        -9.14812        -1.52016
C          5.17147        -9.87494        -1.45820
C          6.25669        -9.27874        -0.88720
O         -6.52883        -1.16253         2.92701
O          8.17086         1.01142         2.35160
O         -9.83753        -1.17097         2.17723
O          2.15207        -7.93656        -2.34269
O          4.76279         7.42474        -1.68499
O         -0.16057        -5.04746         1.18802
O          2.80171         2.19637         2.26579
O         -3.05722        -5.88686         1.60671
O         -7.34565         1.48008        -0.66208
O         -2.46501        -3.47794         1.86765
O         -5.04255        -5.87876        -1.42137
O          1.93482        -3.14720        -2.14248
O          7.00449         3.32627         2.30718
O         -5.88410         5.70493         1.44010
O          0.89926        -7.56030         1.16277
O          1.65259        -0.57995        -2.00280
O          8.03609        -1.84225        -1.25609
O          0.70992         4.91961        -0.92387
O         -6.29472        -3.69617        -0.40890
O         -4.58334         1.02051        -0.45724
O          3.22157         2.01086        -1.23804
O         -3.32941         7.89426        -2.25886
O         -4.71790         3.56893         2.17721
O          0.79884         7.87823         1.04104
O          6.52533        -5.32763         1.11412
O         -2.64518         7.03114         1.34178
O          6.12376        -0.44842        -1.51636
O         -2.62481        -0.94785         2.07153
O          3.59377        -3.72461         0.86718
O         -0.36441        -1.90952        -1.85090
O         -8.38138        -3.59665         2.45420
O          4.10559        -7.91700         0.77078
O          5.71856         0.03386         2.07903
H          5.40147         0.74969         2.67254
O        -10.63211         1.58949         2.39773
H        -10.71029         0.68912         2.78626
O          0.55441         0.81849         2.06907
H          1.42928         1.25611         2.34447
O         -2.31323         2.82786         2.76795
H         -1.51436         2.30229         2.98786
O          5.74104         5.62282         2.20102
H          6.18370         5.09485         2.90305
O         -5.19739        -1.54331        -0.44625
H         -5.08648        -0.64739        -0.85203
O         -2.14514        -0.27642        -1.36065
H         -1.55034         0.19071        -1.98687
O          8.72071         3.56762        -0.94544
H          9.09942         2.73115        -1.30938
O          3.65662         9.53739         1.09102
H          4.45664         9.17215         1.55266
O         -5.70763         3.38931        -1.30600
H         -5.85197         2.45230        -1.57779
O          0.08485        10.12683        -2.75937
H          0.21692         9.26573        -3.20740
O         -1.19149        -9.13283        -2.33537
H         -2.03051        -8.68865        -2.61844
O          2.38398         6.49297        -1.91323
H          3.26608         6.49884        -2.35446
O          8.31747        -1.48980         2.31734
H          7.77660        -0.80015         2.77393
O         -3.58993        -7.75226        -2.30843
H         -3.90829        -6.85987        -2.58604
O          5.99035         8.23382         1.63453
H          5.88017         7.37731         2.12641
O         -5.24665         6.28629        -1.99042
H         -4.72373         6.77706        -2.66954
O          1.37204         4.16566         2.57122
H          1.93188         3.45315         3.01314
O         -9.91981         5.50791        -0.32329
H         -9.90721         5.75782         0.62325
O         -2.09172        -3.76983        -1.65237
H         -1.94139        -2.96562        -2.20531
O          9.89810         1.16745        -0.88421
H          9.94226         0.22133        -1.14354
O          3.96854        -0.11169        -2.41404
H          3.40747         0.66679        -2.62900
O         -6.20640         8.33648         0.90794
H         -6.24601         7.56196         1.51854
O          9.11190         5.07498         2.35141
H          8.40692         4.54500         2.79296
O         -4.80050        -2.97158         2.90422
H         -3.85218        -2.90337         3.16312
O          4.08675        -4.40858        -2.34106
H          3.25385        -4.05908        -2.74611
O          5.61745         4.95192        -1.36884
H          5.30380         5.52579        -2.10329
O          0.53526         1.76749        -1.44954
H          1.23092         1.78360        -2.14447
O         -2.73107        10.77844        -0.07830
H         -1.92897        11.29956         0.12927
O         -6.26750         1.35508         2.85405
H         -6.43760         0.59951         3.46849
O          2.74804         6.40644         1.75193
H          2.37682         5.75184         2.39657
O          2.17595       -10.22828         0.28405
H          2.84096        -9.64636         0.70948
H         12.14963        -1.44421         1.09422
H         12.18504         1.01217         1.16979
H         10.32640         2.93301         1.99799
H          9.72383         5.54977         0.44170
H          8.54724         7.61396         0.10834
H          7.28928         9.66669        -0.77811
H          5.18907        10.85537        -1.25363
H          2.65447        10.91080        -1.40408
H          0.03764        10.92548        -0.86773
H         -2.32346        10.58554        -2.12589
H         -5.03929        10.56195        -2.31373
H         -7.12542         9.54370        -1.59779
H         -8.39952         7.46114        -1.01846
H         -8.76102         4.55547        -1.72124
H        -10.81510         3.40177         0.40697
H        -11.67641         1.23239        -0.41129
H        -11.93309        -1.12887        -0.49068
H        -10.36112        -3.24454        -0.43937
H         -9.63174        -5.58304         0.39314
H         -8.33763        -7.71433         0.17038
H         -7.13911        -9.77042        -0.16348
H         -5.03156       -11.00640        -0.25327
H         -2.56513       -11.05368        -0.38472
H         -0.15823       -11.17378        -0.35811
H          2.84714        -9.60147        -3.43189
H          5.24950       -10.87510        -1.90828
H          7.22121        -9.80750        -0.87469
H          8.38014        -7.64632        -0.54110
H          9.59973        -5.62692         0.22237
H         10.93609        -3.49080         0.18675
