         315
 CSIRO Nanostructure Databank - Neutral Graphene Oxide Data Set
C         30.24316        31.65355         0.71647
C         30.34028        32.95052         0.52498
C         30.28776        36.15406         0.65453
C         30.29149        37.38130         0.77617
C         30.30013        40.59518         0.33433
C         30.31403        41.80223         0.05976
C         32.58082        28.77328         0.09925
C         31.59188        29.43824         0.47293
C         32.65263        31.61092         0.02921
C         31.29614        30.82392         0.50434
C         32.68890        33.07074         0.59794
C         31.33726        33.82950         0.35828
C         32.69310        35.97074         0.53352
C         31.34428        35.29053         0.02715
C         32.67611        37.47517         0.51423
C         31.45541        38.30451         1.00099
C         32.66917        40.42618         0.60086
C         31.42573        39.60816         0.18006
C         32.75137        41.92409         0.56168
C         31.24507        42.90138         0.38656
C         32.88726        44.40213        -0.60547
C         31.75782        43.89079        -0.57598
C         35.44027        27.23474        -0.72565
C         35.14992        28.67110        -0.63795
C         33.89354        29.36195        -0.23520
C         35.15090        31.61607        -0.13455
C         33.94501        30.81353         0.38128
C         35.19470        33.11442         0.24965
C         33.87675        33.80925         0.02327
C         35.24196        35.96697         0.09835
C         33.88849        35.30366        -0.21682
C         35.22480        37.43368         0.51031
C         33.92837        38.20807         0.12151
C         35.25226        40.37769         0.89686
C         33.95563        39.63715         0.69474
C         35.28201        41.89270         0.74788
C         34.09160        42.57318         0.36988
C         35.37306        44.61260        -0.15954
C         34.17093        43.88988        -0.18293
C         35.61433        45.99855        -0.45302
C         37.90679        27.15949        -1.20084
C         36.52461        26.68016        -0.88713
C         37.81702        28.71877        -0.75803
C         36.49623        29.37982        -0.28153
C         37.71519        31.66273        -0.75987
C         36.40490        30.89122        -0.52475
C         37.69104        33.06652        -0.08252
C         36.37945        33.83540        -0.43873
C         37.76404        35.99488        -0.19162
C         36.41404        35.29326        -0.01301
C         37.71782        37.42042         0.32769
C         36.46352        38.20642        -0.06944
C         37.68127        40.01706         1.02115
C         36.49180        39.60075         0.54470
C         37.75830        42.17491         1.33471
C         36.48217        42.67707         0.84120
C         37.71985        44.85243         0.83219
C         36.52835        44.02789         0.43460
C         37.72508        46.34889         0.59829
C         36.61330        46.71924        -0.29932
C         40.92877        25.09737        -0.73782
C         39.55661        25.06875        -0.75649
C         40.30831        27.29836        -0.60579
C         39.05066        26.48515        -0.44731
C         40.30220        28.74604        -0.31425
C         38.97276        29.42558        -0.62203
C         40.23505        31.69451        -0.80209
C         38.97043        30.90211        -0.25967
C         40.30055        33.08461        -0.12531
C         38.99418        33.83806        -0.25460
C         40.29074        35.98572         0.13099
C         38.98397        35.21969         0.35960
C         40.27902        37.38975         0.34574
C         39.03276        38.10139         0.60592
C         40.24654        40.30473         1.15406
C         39.01322        39.61694         0.46794
C         40.24890        41.89589         1.23659
C         38.99328        42.70330         1.05190
C         40.31653        44.85646         0.58773
C         39.07935        44.21720         1.20977
C         40.28156        46.25278         0.26462
C         39.03848        47.09552         0.74417
C         40.12410        48.90923        -0.50066
C         39.10403        48.36401        -0.04836
C         43.21311        24.28466        -0.69083
C         41.79569        23.90737        -0.98608
C         42.74997        27.16176        -0.38000
C         41.40432        26.50801        -0.55221
C         42.85271        28.65833        -0.55401
C         41.57735        29.44195        -0.76969
C         42.81173        31.67776        -0.32623
C         41.58223        30.93778        -0.74591
C         42.79307        33.11179        -0.26727
C         41.52101        33.88178        -0.64799
C         42.75590        36.07574        -0.34966
C         41.47759        35.30931        -0.14349
C         42.75185        37.45403         0.33548
C         41.45057        38.22985        -0.08033
C         42.76622        40.46188         0.46569
C         41.46389        39.73480         0.40066
C         42.89606        41.90605         1.01908
C         41.54645        42.67542         1.04815
C         42.73840        44.74078         0.10981
C         41.50761        44.10084         0.54399
C         42.69944        46.13870        -0.48195
C         41.41488        46.91235        -0.25731
C         42.69402        48.78203        -0.94682
C         41.39507        48.29175        -0.67421
C         43.94845        25.12143        -0.17683
C         44.90101        27.28969         0.99810
C         43.73785        26.42480         0.52486
C         45.02286        28.79298         0.77054
C         44.13466        29.47334        -0.26442
C         45.17777        31.65325         0.34557
C         43.95788        30.95967         0.03414
C         45.20837        33.06614         0.18789
C         43.98559        33.80346        -0.03833
C         45.18932        35.94651        -0.06683
C         44.00132        35.27143        -0.02155
C         45.26756        37.44972        -0.33400
C         43.99444        38.21571         0.02871
C         45.26496        40.36242         0.01676
C         44.05926        39.62589         0.59547
C         45.21932        41.85406        -0.14344
C         43.96428        42.60036         0.17600
C         45.27638        44.75956        -0.01159
C         43.94933        44.07563         0.07167
C         45.25597        46.19051        -0.58941
C         44.01193        46.94838        -0.13655
C         43.83067        48.26442        -0.92786
C         47.34139        27.34090         1.23293
C         46.24854        26.76865         1.26459
C         47.65198        28.70267         0.64154
C         46.35102        29.51932         1.10220
C         47.60987        31.67488         0.77262
C         46.40501        30.96673         0.62873
C         47.65529        33.09143         0.56996
C         46.46435        33.74603         0.20132
C         47.88705        36.17985         0.80669
C         46.32591        35.06522        -0.51364
C         47.77653        37.43534         0.26806
C         46.47010        38.16233         0.40559
C         47.84207        40.26432        -0.29704
C         46.53443        39.58869        -0.12355
C         47.83566        41.75187        -0.19806
C         46.54634        42.55282        -0.48219
C         48.01383        44.71168         0.08487
C         46.58169        43.99467         0.06591
C         47.62956        46.10949        -0.27251
C         46.59385        46.78151        -0.18841
C         50.23230        28.86159         0.60713
C         48.88424        29.40229         1.19988
C         50.15502        31.67332         1.35248
C         48.95163        30.92929         0.70273
C         50.23254        33.14990         0.98184
C         48.89924        33.87573         1.06252
C         50.26601        36.03761         0.61307
C         49.01611        35.25265         0.39915
C         50.25495        37.47230         0.13437
C         48.93665        37.99110        -0.52213
C         50.27206        40.16825        -0.75998
C         48.99236        39.53057        -0.51451
C         50.28156        41.67035        -1.07700
C         49.11815        42.47779        -0.48023
C         50.47197        44.45612        -0.52427
C         49.03966        44.01795        -0.81610
C         51.26698        29.55265         0.82777
C         52.56457        31.79789         1.14156
C         51.51645        30.91332         1.06101
C         52.57357        33.05486         1.45101
C         51.42159        33.85499         1.05900
C         52.61000        36.05741         0.38030
C         51.50729        35.36831         1.15636
C         52.60904        37.18763        -0.12251
C         51.46399        37.90201        -0.78435
C         52.62040        40.18301        -1.13771
C         51.46327        39.41164        -0.84270
C         52.69292        41.45112        -0.96584
C         51.69051        42.37424        -0.81570
C         51.49958        43.75758        -0.65955
O         34.52954        39.79149         2.02059
O         46.84129        35.24888        -1.60698
O         45.65660        39.82147        -1.27885
O         43.18562        27.71523        -1.64614
O         37.27310        45.82711         1.86323
O         45.92278        44.41721         1.28807
O         37.72067        40.96864         2.03350
O         40.97025        42.43687         2.38388
O         41.95781        40.51959        -0.73702
O         44.18317        42.08948        -1.18280
O         41.66038        30.16173        -2.01746
O         44.39860        28.25554         1.97247
O         42.77721        45.94574        -1.95832
O         35.42831        31.32958        -1.52209
O         38.14681        37.60112         1.69687
O         34.28040        29.24310        -1.63069
O         41.40260        22.81778        -1.32904
O         48.72551        42.19516         0.87861
O         32.52903        41.23627         1.80852
O         30.99368        43.47599         1.61093
H         30.86380        42.76533         2.27426
O         50.37747        38.24005         1.36325
H         51.07797        37.82404         1.91542
O         38.69854        26.54572         0.96757
H         39.08197        25.74747         1.39181
O         48.49982        44.66885         1.40412
H         47.76436        44.90896         2.00964
O         34.05186        30.66922         1.80015
H         34.90862        30.21891         1.99389
O         38.16371        27.11946        -2.57982
H         37.37632        27.42753        -3.07239
O         49.10728        34.97713        -1.02078
H         49.05592        35.82639        -1.54212
O         48.90689        29.24330         2.57364
H         49.53149        29.88393         2.98412
O         43.43089        41.92678         2.34328
H         42.67351        41.88067         2.97260
O         37.77474        31.79362        -2.18041
H         36.87225        32.06190        -2.47933
O         35.28276        37.39964         1.94940
H         36.22025        37.32245         2.23864
O         40.41679        28.77530         1.16963
H         39.86522        28.01325         1.48808
O         48.82134        37.53968        -1.89136
H         47.86634        37.55557        -2.13597
O         48.69137        34.06289         2.48269
H         48.76361        33.17888         2.91361
O         48.73352        44.23448        -2.16070
H         49.23335        43.59364        -2.71540
O         39.24820        44.44645         2.63338
H         38.52981        43.98511         3.11524
O         51.66170        35.69351         2.54926
H         52.42682        35.17983         2.88731
O         40.34883        39.81198         2.49245
H         39.57038        40.13108         2.99909
O         35.39322        33.23468         1.67876
H         34.56165        32.93217         2.13157
O         40.57266        32.95862         1.29954
H         39.88135        32.32573         1.64595
O         47.69476        28.61487        -0.75269
H         48.61880        28.43720        -1.03240
O         36.15450        33.87421        -1.86706
H         36.87845        34.43666        -2.23885
O         39.27035        47.38447         2.10816
H         38.65620        46.82840         2.64548
O         36.55158        29.24380         1.17472
H         36.83872        28.32576         1.38092
O         46.57777        42.71068        -1.91643
H         45.65147        42.63635        -2.24859
O         33.75091        35.56590        -1.65242
H         34.39953        34.96987        -2.10199
O         45.55511        37.49742        -1.75242
H         44.79020        37.06721        -2.20276
O         41.56357        45.20928        -2.32312
H         41.87168        44.70802        -3.11715
O         45.24754        46.04134        -1.99589
H         45.05169        46.91685        -2.39608
O         42.97609        26.10169         1.70305
H         43.56934        25.64920         2.33830
O         42.61829        37.29132         1.78174
H         43.34613        36.70729         2.08648
O         37.96665        36.03199        -1.62982
H         37.45389        36.80804        -1.97674
O         33.89545        38.32410        -1.33673
H         33.64706        37.42972        -1.69611
O         32.55938        31.72243        -1.37642
H         32.84428        30.88328        -1.80044
O         46.42146        29.64754         2.52641
H         45.82915        28.95942         2.91524
O         44.92844        29.50529        -1.47453
H         44.62930        28.76527        -2.05458
O         32.81409        32.96554         2.03609
H         32.13659        32.32998         2.35554
O         31.25552        35.45637        -1.38143
H         30.60977        34.81210        -1.73757
O         50.08590        41.78828        -2.51028
H         50.73894        41.21307        -2.96414
O         49.98396        31.65321         2.79846
H         50.78569        32.06461         3.19134
O         40.05105        31.97092        -2.19897
H         40.26204        31.14532        -2.69628
O         37.67023        32.84899         1.33996
H         37.65851        33.73251         1.78772
O         41.34953        38.28721        -1.51379
H         42.16962        38.70796        -1.85987
O         39.02316        39.95065        -0.93386
H         39.78997        39.49706        -1.36695
O         31.52265        39.28559        -1.19796
H         30.82269        38.63429        -1.41538
O         32.84388        35.62632         1.93422
H         33.67209        36.05515         2.25806
O         44.05284        47.20659         1.23476
H         44.96081        47.48481         1.48237
O         38.97351        30.92493         1.18117
H         39.50340        30.14976         1.50347
O         44.19768        39.54765         2.04208
H         43.50684        38.91959         2.36344
O         38.84397        35.10160         1.80559
H         39.61356        34.56077         2.10768
O         31.61285        38.61298         2.37107
H         31.66751        37.77470         2.87589
O         42.89492        36.32303        -1.78480
H         42.48751        35.54620        -2.24970
O         46.14926        38.17616         1.82359
H         46.76186        38.79039         2.28058
O         41.53783        34.04377        -2.08919
H         41.03792        33.28785        -2.50197
O         51.30726        37.37781        -2.09237
H         52.10242        37.60149        -2.61767
O         49.19270        30.92388        -0.71594
H         50.06484        30.51300        -0.89955
O         47.07296        35.75910         1.80073
H         46.53347        36.53507         2.11096
O         36.44998        38.22251        -1.50520
H         35.54333        38.50904        -1.79809
