         236
 CSIRO Nanostructure Databank - Neutral Graphene Oxide Data Set
C        -11.24278         0.73324         0.06065
C        -10.00873         1.47734         0.18168
C         -8.78911         0.73340         0.38830
C         -7.55150         1.49422         0.78056
C         -6.25043         0.72759         0.61157
C         -5.01011         1.50395         0.54395
C         -3.71446         0.79960         0.73831
C         -2.46332         1.59692         0.49058
C         -1.18136         1.06697         0.89539
C          0.03504         1.47509         0.39686
C          1.26441         0.72704         0.55326
C          2.49636         1.44497         0.38153
C          3.78230         0.74202         0.47857
C          5.01914         1.42186        -0.02494
C          6.32521         0.68713         0.23859
C          7.50826         1.44697        -0.31048
C          8.54488         0.69715        -0.76831
C         10.38446         1.78416        -0.20942
C         11.24823         0.73887         0.33554
C         -9.98275         2.85952         0.03880
C         -8.73940         3.59584        -0.01157
C         -7.54118         2.89289         0.22084
C         -6.26450         3.60296         0.20133
C         -5.00342         2.82653         0.17444
C         -3.79337         3.42644        -0.53606
C         -2.49039         2.83854        -0.07463
C         -1.24900         3.57310        -0.58118
C          0.11660         2.78517        -0.38417
C          1.23660         3.54938         0.30298
C          2.53611         2.84038         0.20882
C          3.72398         3.60022         0.03315
C          5.00222         2.90962        -0.26335
C          6.26232         3.63794        -0.34760
C          7.54198         2.93316         0.02400
C          8.82032         3.73287        -0.39530
C         10.03931         3.02394         0.22537
C         -8.74520         4.98555        -0.33640
C         -7.55665         5.75755        -0.45657
C         -6.27662         5.05543        -0.15622
C         -5.00817         5.72535        -0.57628
C         -3.72365         4.97627        -0.58426
C         -2.47496         5.71352        -0.18766
C         -1.28842         5.01215        -0.04849
C         -0.09815         5.72200         0.43090
C          1.21095         5.00225         0.55637
C          2.52587         5.78055         0.64601
C          3.71785         5.00256         0.07054
C          4.87759         5.72001        -0.33171
C          6.23759         5.10442        -0.68756
C          7.44744         5.83168        -0.02784
C          8.61927         5.15077         0.10886
C         -7.53346         7.12268        -0.71923
C         -6.24438         7.87920        -0.98389
C         -5.05866         7.19629        -0.32438
C         -3.77125         7.91883        -0.14893
C         -2.50154         7.16204        -0.09538
C         -1.32566         7.90644        -0.05677
C         -0.08411         7.24207         0.34727
C          1.20703         7.92134         0.13104
C          2.40828         7.20813         0.13069
C          3.60752         7.88087        -0.21696
C          4.73410         7.08320        -0.56512
C          6.53525         8.15914        -0.13481
C          7.37822         7.23154         0.42096
C         -6.21929         9.36061        -0.67504
C         -5.05112        10.02841        -0.50839
C         -3.75011         9.37196        -0.41060
C         -2.54870        10.03197        -0.47575
C         -1.29183         9.33456        -0.28596
C         -0.06465         9.99840        -0.31387
C          1.19465         9.31992        -0.17207
C          2.43668        10.00468        -0.23988
C          3.66121         9.31475        -0.23620
C          4.91128        10.03138         0.00994
C          6.16100         9.51306         0.23710
C        -11.24560        -0.62843         0.04492
C        -10.01571        -1.38304         0.12675
C         -8.77975        -0.65065         0.33381
C         -7.52320        -1.37795         0.36045
C         -6.26345        -0.64583         0.49018
C         -5.01556        -1.51457         0.67813
C         -3.70136        -0.71398         0.68091
C         -2.41709        -1.32762         0.08568
C         -1.16379        -1.04122         0.88618
C          0.04809        -1.50068         0.46179
C          1.28123        -0.72648         0.58105
C          2.47835        -1.42761         0.33700
C          3.77037        -0.75953         0.42104
C          4.94888        -1.45543        -0.18308
C          6.21513        -0.70065        -0.38479
C          7.46457        -1.46425        -0.55426
C          8.64499        -0.75786        -0.63034
C          9.91144        -1.39876        -0.29959
C         11.05361        -0.60901         0.19791
C        -10.00665        -2.76190         0.02795
C         -8.77525        -3.51022         0.06261
C         -7.53392        -2.74627         0.13056
C         -6.29435        -3.43631        -0.27215
C         -5.01925        -2.75650        -0.18997
C         -3.77201        -3.49873        -0.46539
C         -2.46298        -2.80785        -0.30537
C         -1.22509        -3.60451        -0.05080
C          0.05858        -2.82221        -0.26491
C          1.31305        -3.56158         0.09979
C          2.50495        -2.86012         0.16008
C          3.76351        -3.58091         0.05537
C          4.95743        -2.93649        -0.16823
C          6.18514        -3.65978        -0.42049
C          7.41721        -2.91194        -0.68602
C          8.80522        -3.65615        -0.48355
C          9.92804        -2.77815        -0.12332
C         -8.78118        -4.89287         0.04861
C         -7.52144        -5.68719         0.27332
C         -6.33295        -4.95933        -0.36386
C         -5.04290        -5.71853        -0.34995
C         -3.73618        -5.00767        -0.41757
C         -2.50558        -5.71853         0.06411
C         -1.26531        -4.95540         0.16265
C         -0.03781        -5.68916         0.59312
C          1.26820        -4.96106         0.51933
C          2.55294        -5.72093         0.53503
C          3.67021        -5.05173        -0.23132
C          4.97875        -5.79997        -0.20215
C          6.22617        -5.05612        -0.36096
C          7.48739        -5.75406        -0.16982
C          8.67856        -5.07004        -0.08550
C         -7.52311        -7.12493        -0.20773
C         -6.35511        -7.84989        -0.17882
C         -5.10021        -7.12191         0.16054
C         -3.79877        -7.83826         0.31587
C         -2.52221        -7.07274         0.26759
C         -1.30918        -7.88175         0.68661
C          0.01138        -7.16478         0.52678
C          1.19774        -7.87744         0.47824
C          2.52598        -7.21328         0.61929
C          3.83175        -7.97858         0.38816
C          4.95032        -7.16400        -0.24712
C          6.22143        -7.87772        -0.66588
C          7.40377        -7.26212         0.12464
C         -6.22608        -9.26582        -0.40298
C         -5.01382        -9.92163        -0.31125
C         -3.77219        -9.28006        -0.00425
C         -2.53541        -9.92244        -0.15223
C         -1.30055        -9.27400         0.08315
C         -0.06441        -9.91353        -0.12455
C          1.17728        -9.27667         0.08301
C          2.40969        -9.94174        -0.25513
C          3.64909        -9.34219        -0.21409
C          4.89362       -10.02286        -0.51540
C          6.08637        -9.37993        -0.59338
O         -6.55763        -4.21630        -1.55501
O          0.53922        -5.08286         1.80446
O          5.27911        -0.86222        -1.49661
O         -0.27147         6.54888         1.63032
O         -4.70235         7.60701         1.00232
O         -4.36850         5.42569        -1.83684
O          6.40995         5.20579        -2.12625
H          6.48749         6.16416        -2.33606
O         -6.19879         4.67606         1.26072
O         -2.19556        -0.59538        -1.15502
H         -2.43165        -1.20093        -1.89968
O         -3.61214        -0.01983         1.95675
O          2.75410        -6.35904         1.81544
O          8.21934        -3.40452        -1.79160
O          9.66784         1.30240        -1.34377
O          1.04039         4.03382         1.67455
O         -1.49933         3.63580        -1.97456
O          6.53331         0.52619         1.66925
H          5.67350         0.21892         2.06530
O         -7.28215        -5.69673         1.71510
H         -6.62060        -6.39158         1.92660
O          0.11567        -2.59358        -1.70780
H          0.72219        -1.84140        -1.87489
O          4.42164        -8.24773         1.71422
H          4.07733        -7.53705         2.31045
O         -4.30702        -5.63831        -1.61258
O         -4.60981        -7.40119         1.50425
O         -5.14727        -2.05489         2.03594
H         -4.88919        -1.32301         2.64632
O          7.55600         3.01804         1.49477
H          7.15062         2.18944         1.86116
O          3.19926        -5.14699        -1.62170
H          3.82595        -4.65251        -2.19198
O         -3.00381        -2.98742        -1.65575
O          5.77845         7.71393        -1.25566
O         -3.98421         2.96205        -1.89598
H         -3.11750         3.19338        -2.34709
O         -1.17257         0.00351         1.81367
O          3.98840        -0.04812         1.70737
O          4.87540         1.88026        -1.38283
O          8.93496         3.81042        -1.81748
H          9.15026         2.90964        -2.15320
O         -7.64887         1.70186         2.24366
H         -8.38143         2.33408         2.40606
O          7.21221        -7.48237         1.52355
H          6.27465        -7.76021         1.68132
O         -1.46505        -8.07098         2.13409
H         -0.65978        -8.52131         2.46588
O          2.84524         5.92470         2.05825
H          2.29848         5.26035         2.54074
O         -6.00745         7.76349        -2.42389
H         -6.79912         8.10005        -2.89268
O          0.62689         2.48107        -1.69033
H         -0.09979         2.78108        -2.31539
O          6.45530        -7.59725        -2.07343
H          6.57185        -6.62850        -2.17778
H         11.84259        -1.24089         0.64161
H         12.13775         1.06023         0.90098
H         10.51815         3.45370         1.11744
H          9.49250         5.67715         0.52915
H          8.03981         7.53055         1.24869
H          6.92916        10.17126         0.67273
H          4.77708        11.10287         0.23397
H          2.43624        11.10398        -0.29353
H         -0.05037        11.08340        -0.49656
H         -2.52335        11.11734        -0.65712
H         -5.06729        11.12611        -0.41573
H         -7.16411         9.92486        -0.72478
H         -8.48692         7.64857        -0.89338
H         -9.71587         5.47489        -0.50905
H        -10.92314         3.40316        -0.13544
H        -12.18361         1.29380        -0.04116
H        -12.19055        -1.18069        -0.06458
H        -10.95504        -3.30876        -0.08405
H         -9.74268        -5.42728         0.00908
H         -8.47104        -7.60175        -0.50150
H         -7.13125        -9.84089        -0.64663
H         -4.98694       -11.00301        -0.51545
H         -2.52108       -10.97169        -0.48819
H         -0.06491       -10.94637        -0.50722
H          2.33566       -10.97736        -0.62339
H          4.86156       -11.11711        -0.63904
H          6.99763        -9.96351        -0.79564
H          8.36890        -7.74515        -0.18724
H          9.58136        -5.59975         0.25700
H         10.80204        -3.24362         0.35929
