         276
 CSIRO Nanostructure Databank - Neutral Graphene Oxide Data Set
C        -10.56828         0.71651        -1.74536
C         -9.73685         1.42871        -0.78940
C         -8.85715         0.68877         0.20276
C         -7.49617         1.43682         0.37779
C         -6.28034         0.68451         0.84107
C         -5.07959         1.43721         1.36801
C         -3.75242         0.73251         1.49647
C         -2.55593         1.44312         1.57472
C         -1.30527         0.83832         2.21516
C          0.00801         1.43092         1.71543
C          1.22582         0.66846         1.46559
C          2.52468         1.44312         1.64121
C          3.89092         0.70910         1.50459
C          4.86511         1.45111         0.59402
C          6.14299         0.75218         0.26480
C          7.14743         1.40142        -0.38390
C          8.45490         0.78092        -0.84662
C          9.57242         1.36783         0.04480
C         10.89354         0.70371        -0.27572
C         -9.74398         2.77977        -0.77361
C         -8.84371         3.55291         0.14385
C         -7.54331         2.79757         0.42599
C         -6.45443         3.64272         1.03564
C         -5.12469         2.93850         1.34639
C         -3.81517         3.66965         1.14043
C         -2.53427         2.87508         1.18183
C         -1.49991         3.37651         0.17085
C          0.14185         2.81060         1.64836
C          1.28609         3.69112         1.40966
C          2.56712         2.96617         1.70906
C          3.91288         3.68139         1.49830
C          4.83788         2.94575         0.52874
C          6.04995         3.62978         0.08791
C          7.10454         2.88220        -0.66545
C          8.44170         3.57453        -0.39236
C          9.57532         2.87462        -0.11983
C         -8.64188         4.94627        -0.39132
C         -7.52619         5.72636        -0.11118
C         -6.34951         5.11260         0.60573
C         -5.04438         5.65928         0.07650
C         -3.78535         4.80088         0.10993
C         -2.48241         5.59914         0.21471
C         -1.32691         4.87745         0.18247
C          0.01724         5.50353        -0.00391
C          1.30272         4.92319         0.54911
C          2.46097         5.91557         0.82822
C          3.80313         5.20145         1.14257
C          5.01283         5.89830         0.59158
C          5.92723         5.06292        -0.33353
C          7.24207         5.72401        -0.72927
C          8.41185         5.01527        -0.59797
C         -7.47327         7.10004        -0.37507
C         -6.31984         7.94961         0.10125
C         -5.01935         7.14382        -0.03792
C         -3.73679         7.87651         0.16833
C         -2.46636         7.08485         0.30038
C         -1.17441         7.80559         0.02241
C          0.01832         6.97713        -0.36838
C          1.30242         7.69530        -0.60303
C          2.61391         6.92303        -0.45450
C          3.77214         7.88949        -0.24980
C          4.88837         7.36539         0.32689
C          6.23014         7.84166        -1.76176
C          7.23875         7.13109        -1.12144
C         -6.17136         9.22366        -0.70923
C         -4.98563         9.81208        -0.93710
C         -3.71411         9.29472        -0.36851
C         -2.42739         9.85527        -0.76582
C         -1.20666         9.20750        -0.50683
C          0.01039         9.82706        -0.78467
C          1.30522         9.20604        -0.34811
C          2.52604         9.86973        -0.93004
C          3.73143         9.24969        -0.79888
C          4.97557         9.91144        -1.23883
C          6.12046         9.31187        -1.64489
C        -10.38826        -0.59423        -2.04727
C         -9.35962        -1.36995        -1.38706
C         -8.86827        -0.83819        -0.07779
C         -6.57172        -1.21236        -0.97523
C         -5.98784        -0.69801         0.33210
C         -4.62466        -1.34753         0.51666
C         -3.75863        -0.68806         1.57129
C         -2.58649        -1.43293         2.06880
C         -1.25899        -0.70395         2.20970
C          0.03235        -1.45606         1.97291
C          1.24652        -0.71533         1.52483
C          2.57535        -1.45184         1.70579
C          3.69744        -0.72026         0.93654
C          5.02276        -1.52733         1.03031
C          6.24517        -0.69591         0.60042
C          7.40905        -1.40634         0.01791
C          8.43250        -0.74874        -0.87172
C          9.76493        -1.43986        -0.65109
C         10.96094        -0.61863        -0.55011
C         -8.98485        -2.60225        -1.84574
C         -7.82830        -3.37923        -1.39256
C         -6.45307        -2.69310        -1.42757
C         -5.25647        -3.49214        -0.75792
C         -4.95263        -2.89390         0.65632
C         -3.85594        -3.65496         1.42479
C         -2.61541        -2.93779         1.92367
C         -1.30684        -3.69852         1.88135
C          0.01801        -2.98420         1.90940
C          1.27598        -3.74520         1.52669
C          2.54569        -2.96551         1.32958
C          3.53167        -3.53985         0.29412
C          4.90171        -2.85930         0.28161
C          5.96810        -3.47611        -0.28152
C          7.24773        -2.76031        -0.60459
C          8.52294        -3.57670        -0.59632
C          9.76352        -2.80733        -0.58930
C         -7.94077        -4.73603        -1.32797
C         -6.84730        -5.62974        -1.03404
C         -5.44994        -5.08247        -0.77976
C         -4.93847        -5.79685         0.50107
C         -3.88702        -5.15203         1.36346
C         -2.62424        -5.94504         1.55495
C         -1.34015        -5.17557         1.53374
C         -0.26257        -5.61221         0.54187
C          1.13494        -5.16239         0.96711
C          2.32961        -5.82348         0.35875
C          3.68804        -5.09036         0.44405
C          4.68795        -5.63739        -0.54706
C          5.93273        -4.85893        -0.87800
C          7.17380        -5.68898        -0.49294
C          8.46888        -4.93111        -0.68836
C         -7.01524        -6.98126        -1.00799
C         -5.85542        -7.90976        -0.71668
C         -5.02178        -7.28379         0.42967
C         -3.97366        -8.17345         1.12184
C         -2.62228        -7.44031         1.21751
C         -1.36062        -8.06081         0.69286
C         -0.32653        -7.11122         0.11599
C          0.84884        -7.68691        -0.62002
C          2.07825        -6.77473        -0.82301
C          3.32100        -7.55666        -1.26024
C          4.62997        -6.89597        -1.06253
C          5.86565        -7.59890        -1.44822
C          7.08396        -7.03261        -1.19267
C         -6.22458        -9.31619        -0.30290
C         -5.21334       -10.09527         0.11695
C         -3.88676        -9.48396         0.34284
C         -2.74644       -10.01845        -0.14037
C         -1.36698        -9.54117         0.25851
C         -0.23721        -9.92765        -0.64935
C          0.92646        -9.17350        -0.81165
C          2.09522        -9.78737        -1.28049
C          3.30504        -9.02964        -1.57634
C          4.60958        -9.70879        -1.74369
C          5.76963        -9.01696        -1.78664
O          4.19234         2.09215        -0.54351
O          0.92390         4.70611        -0.83020
O         -2.90435         3.83343         2.23820
O         -0.55716        -3.54272         3.11914
O         -3.83407         8.97644         1.08734
O         -1.07096         2.66430        -0.72800
O         -6.14263        -2.61714        -2.83291
O         -1.60850         7.58748         1.38447
O          4.79893         5.82914         2.03358
O         -4.42424        -4.45766         2.51906
O          7.07547        -2.32749        -2.03533
O          2.33521        -3.74342         2.53981
O          1.84875        -6.22938         1.66747
O         -8.72549        -1.61808         0.85146
O         -4.62912        -5.54570        -1.83498
O         -1.79861        -5.80941         2.75008
O         -0.42738        -1.08708         3.33386
O          2.49464         2.17761         2.91400
O         -5.27272         2.21727         2.59346
O          0.19661         3.84471         2.52480
O         -5.10520         6.30960        -1.24233
O         -6.93665         4.14080         2.38049
O         -2.88289        -2.30942         3.20668
O         -6.66889        -0.51219         1.59058
O          8.75786         1.23272        -2.19119
O          0.48461         7.27039        -1.73055
O         -1.62171        -8.03706         2.11129
O          3.12358        -7.98607        -2.64997
O         -0.33102        -7.19211        -1.34091
O         -5.89611        -6.53299         1.33272
O         -6.48859         5.51314         2.04263
O          7.43182        -1.11139         1.41296
O          4.60888         3.60367         2.75515
H          4.35372         2.74869         3.18377
O         -1.47548         1.23264         3.59676
H         -0.96733         0.58981         4.14494
O          5.82965         8.14816         0.92900
H          6.46747         7.58114         1.40680
O         -6.16815        -3.00800         1.39111
H         -5.99753        -3.55880         2.19337
O          4.52456         0.66904         2.78400
H          4.06268        -0.02628         3.31952
O          5.09800         4.90766        -1.53794
H          5.52238         4.18772        -2.07634
O         -6.57000         8.31096         1.47463
H         -6.69969         7.48830         1.99896
O          1.77492        -5.87353        -1.91309
H          1.86009        -6.39670        -2.74384
O          5.27211         7.31894        -2.52992
H          5.18791         6.33507        -2.40822
O          7.97438        -1.15362        -2.21996
H          8.40737         0.55992        -2.81821
O         -1.02431       -10.34649         1.43583
H         -1.31800        -9.81664         2.22050
O          2.85676         6.16357        -1.63132
H          1.99264         6.03975        -2.09151
O          2.04998         6.67339         1.96343
H          2.84762         7.04050         2.40144
O          1.36660         9.33603         1.10895
H          1.33992        10.28985         1.33174
O         -3.81514        -0.97293        -0.62396
H         -3.71534        -1.73084        -1.26650
O         -9.53348         3.75960         1.41262
H         -8.84753         3.97135         2.09055
O          2.84636        -1.35483         3.11674
H          2.56861        -2.20829         3.53116
O         -0.60381        -4.80316        -0.60728
H         -0.17354        -5.22380        -1.39595
O          4.28375        -5.37291         1.71760
H          3.55458        -5.38490         2.38403
O         -4.43454        -8.46820         2.44680
H         -5.01719        -7.72512         2.72663
O          2.90426        -3.29731        -0.98125
H          3.50203        -3.61024        -1.69399
O         -9.46832         0.79668         1.50478
H         -9.14004         0.02766         2.02762
O          5.20805        -1.90739         2.40378
H          6.17911        -1.97917         2.55741
O          6.85268         3.04802        -2.10898
H          7.61254         2.58902        -2.55254
O         -6.91231        -0.38496        -1.81497
H         -6.54085        -1.78085        -3.16837
O          9.23145         1.04105         1.41290
H          9.89187         1.45445         2.00589
O          3.28936        -0.63391        -0.43410
H          3.53076         0.23721        -0.81900
O          5.90946        -4.72803        -2.32427
H          6.59917        -4.08214        -2.59851
O         -4.08541        -3.27601        -1.55117
H         -4.04345        -4.07245        -2.16925
O         -5.04115        -8.08016        -1.89119
H         -4.80272        -7.15873        -2.20284
O         -3.77000         4.09192        -1.15407
H         -3.97194         4.74383        -1.86357
O          7.08747        -5.96028         0.93168
H          7.82441        -6.55527         1.18036
H         11.93706        -1.11117        -0.68153
H         11.81816         1.29643        -0.19612
H         10.52247         3.41438         0.04343
H          9.37078         5.52495        -0.78094
H          8.07686         7.73429        -0.73633
H          7.00826         9.93142        -1.84810
H          4.95817        11.01369        -1.20512
H          2.43954        10.86365        -1.39325
H          0.01091        10.85411        -1.18268
H         -2.41097        10.83757        -1.26163
H         -4.93162        10.72943        -1.54329
H         -7.08852         9.66898        -1.12397
H         -8.35469         7.59231        -0.81357
H         -9.51901         5.43807        -0.84055
H        -10.39787         3.33937        -1.46039
H        -11.31295         1.30839        -2.29821
H        -10.98127        -1.07288        -2.84120
H         -9.56384        -3.03388        -2.68247
H         -8.93458        -5.19144        -1.46905
H         -8.00854        -7.41366        -1.21128
H         -7.23816        -9.70972        -0.46886
H         -5.34846       -11.16800         0.32379
H         -2.79474       -10.96615        -0.69880
H         -0.19879       -10.99232        -0.93062
H          2.11487       -10.88193        -1.38897
H          4.60407       -10.79695        -1.90495
H          6.71318        -9.55299        -1.97054
H          8.00093        -7.63234        -1.31175
H          9.40566        -5.51099        -0.73725
H         10.71155        -3.35534        -0.47684
