         210
 CSIRO Nanostructure Databank - Neutral Graphene Oxide Data Set
C         30.47472        31.64704        -0.58340
C         30.58930        32.88216        -0.86299
C         30.63896        35.97592        -1.48297
C         30.65681        37.21691        -1.60280
C         30.71684        40.37197        -1.95613
C         30.68043        41.61814        -2.10166
C         32.73833        28.97490         0.65108
C         31.64516        29.50109         0.31898
C         32.68395        31.69082         0.35265
C         31.45147        30.86467         0.02111
C         32.79094        33.10303        -0.09217
C         31.64026        33.77835        -0.65511
C         32.82981        35.95150        -0.62363
C         31.69654        35.17908        -0.94575
C         32.86457        37.38418        -0.76718
C         31.69545        38.12183        -1.24712
C         32.81098        40.33779        -0.89838
C         31.68415        39.50846        -1.39341
C         32.88503        41.77547        -1.23376
C         31.75525        42.47615        -1.70311
C         32.91719        44.46002        -1.15815
C         31.92433        43.91061        -1.67974
C         35.49572        27.45151         1.18027
C         35.26367        28.83539         0.91137
C         34.05147        29.47967         0.74353
C         35.28624        31.67332         0.44231
C         34.02076        30.97061         0.70035
C         35.25742        33.09243         0.21456
C         34.00535        33.78709         0.04998
C         35.30103        35.96179        -0.16554
C         33.97979        35.29738         0.11824
C         35.31671        37.36654        -0.33291
C         34.07480        38.07913        -0.51507
C         35.38960        40.23231        -0.45817
C         34.09811        39.53943        -0.45661
C         35.43672        41.68702        -0.67916
C         34.20257        42.46256        -1.06642
C         35.34836        44.59124        -0.41765
C         34.21433        43.95731        -0.83069
C         35.57303        45.94309        -0.04973
C         37.76033        27.56281         1.86636
C         36.46816        26.88234         1.69725
C         37.74953        28.93230         1.26500
C         36.52212        29.56695         0.92463
C         37.76854        31.61979         0.36714
C         36.51035        30.95743         0.56080
C         37.73089        33.00415        -0.25751
C         36.47827        33.79412         0.03981
C         37.75406        35.92834        -0.16203
C         36.50651        35.22260        -0.09618
C         37.77675        37.34492        -0.17915
C         36.55801        38.07394        -0.25931
C         37.82182        40.23122        -0.08579
C         36.57444        39.52065        -0.28518
C         37.81616        41.68041        -0.00693
C         36.64933        42.39914        -0.24283
C         37.85788        44.54959         0.28970
C         36.73386        43.88817        -0.49367
C         37.82771        45.89873         0.68277
C         36.54683        46.53593         0.44965
C         40.15471        24.70619         1.54216
C         39.20784        25.39056         1.94799
C         40.32414        27.51060         1.55572
C         39.06991        26.84183         2.00680
C         40.25860        28.87673         1.20135
C         38.99449        29.57882         1.04806
C         40.25646        31.58175         0.19219
C         38.96911        30.92938         0.54465
C         40.27347        33.05532        -0.11059
C         38.99610        33.80783        -0.06301
C         40.29309        35.90668        -0.39031
C         38.99421        35.17488        -0.12696
C         40.24708        37.38059        -0.06818
C         39.04130        38.06776        -0.08245
C         40.26394        40.23079         0.18230
C         39.02532        39.51757         0.02622
C         40.26418        41.65433         0.37036
C         39.05516        42.38328         0.28453
C         40.25463        44.45805         0.92618
C         39.05482        43.79777         0.49769
C         40.23164        45.84953         1.30715
C         38.97275        46.52568         1.24049
C         40.09549        48.50765         2.06135
C         39.09123        47.86981         1.67337
C         42.63483        24.59107         0.76464
C         41.57602        25.16467         1.69073
C         42.71174        27.38908         1.03202
C         41.53702        26.73664         1.38900
C         42.80128        28.88796         1.26116
C         41.50396        29.59287         0.94561
C         42.77754        31.66109         0.42805
C         41.52563        30.91330         0.56379
C         42.77298        33.06360         0.28544
C         41.52910        33.80685         0.13234
C         42.72631        35.93081         0.59178
C         41.50113        35.17166         0.15232
C         42.69320        37.37995         0.17644
C         41.50450        38.07882         0.03326
C         42.71144        40.25915         0.17128
C         41.49750        39.53809         0.11605
C         42.73994        41.63331         0.49393
C         41.49297        42.34633         0.63923
C         42.71387        44.39961         1.37398
C         41.46839        43.72166         0.96296
C         42.70569        45.87450         1.57707
C         41.44535        46.54978         1.69040
C         42.67636        48.51583         2.32461
C         41.40712        47.95983         2.06512
C         43.65635        25.27897         0.58495
C         45.11808        27.34464         0.43484
C         43.92063        26.68094         0.64576
C         45.18890        28.79928         0.47299
C         44.01948        29.53775         0.63508
C         45.24152        31.64920         0.13619
C         44.02044        30.95775         0.43491
C         45.23801        33.07806         0.03860
C         44.00752        33.78522         0.18307
C         45.22166        35.90320         0.10879
C         44.01500        35.21222         0.22307
C         45.26082        37.37190         0.26855
C         43.96166        38.11888         0.29772
C         45.25520        40.26197         0.04176
C         43.96751        39.53319        -0.22993
C         45.20977        41.64661         0.28755
C         43.99591        42.31063         0.57961
C         45.29388        44.45364         1.05915
C         44.03346        43.68454         1.11873
C         45.22355        45.98855         1.16614
C         43.94735        46.53210         1.74526
C         43.73831        47.86934         2.11066
C         47.44315        27.31457        -0.34548
C         46.38814        26.80009         0.06586
C         47.77908        28.72206        -0.09803
C         46.47948        29.50564         0.28432
C         47.67369        31.62169        -0.33897
C         46.47064        30.94622         0.00756
C         47.67808        33.05326        -0.36976
C         46.46459        33.78037        -0.14473
C         47.66931        35.95122        -0.22381
C         46.45741        35.21754        -0.12460
C         47.69858        37.38363        -0.21063
C         46.50047        38.11110        -0.05672
C         47.73322        40.23969        -0.15701
C         46.48229        39.54005        -0.07567
C         47.75949        41.71323        -0.04264
C         46.46322        42.43265         0.22529
C         47.78906        44.41518         1.00291
C         46.49105        43.79727         0.80287
C         47.59410        45.75564         1.46186
C         46.55283        46.36196         1.78779
C         49.96981        28.93828        -1.38784
C         48.84193        29.46861        -0.75955
C         50.04380        31.62752        -1.15542
C         48.87369        30.90428        -0.72551
C         50.07653        33.06754        -0.98096
C         48.90862        33.74999        -0.57300
C         50.20969        36.00274        -0.64237
C         48.92880        35.20154        -0.29826
C         50.08628        37.45141        -0.87869
C         48.93009        38.11185        -0.49325
C         50.18781        40.28909        -0.41922
C         48.92466        39.56344        -0.39551
C         50.25388        41.65242         0.06790
C         49.04180        42.36341         0.31046
C         50.32711        44.20637         0.94143
C         48.99957        43.72652         0.76255
C         51.00780        29.52721        -1.80277
C         52.29777        31.75885        -2.02268
C         51.19276        30.91344        -1.70290
C         52.29205        32.98793        -1.82150
C         51.27652        33.84896        -1.31797
C         52.29988        36.15972        -1.69112
C         51.32909        35.22637        -1.22774
C         52.39986        37.39665        -1.68331
C         51.16976        38.28304        -1.58116
C         52.49583        40.37122        -0.69706
C         51.34288        39.59675        -0.86879
C         52.62967        41.53086        -0.20878
C         51.55161        42.32070         0.22277
C         51.42418        43.64844         0.71218
O         44.65879        37.86363         1.55901
O         47.52341        29.11912         1.25861
O         35.13032        42.05285        -2.15438
O         33.15289        31.55098         1.72947
O         43.41697        43.72583         2.47763
O         40.31301        32.07749        -1.22090
O         47.04189        42.40902        -1.13942
O         38.41655        27.44504         3.14387
O         33.13718        40.10045         0.50715
O         49.90084        35.59832         0.72750
O         50.69558        38.55496        -2.90395
H         51.33093        39.15491        -3.34741
O         43.90103        39.36586        -1.68945
H         43.91851        40.25693        -2.09871
O         40.46286        35.86784        -1.85364
H         40.35711        34.93588        -2.14355
O         43.00074        29.04810         2.70756
H         43.81429        28.56216         2.96089
O         41.99244        25.00979         3.01517
H         41.95939        24.06348         3.26245
O         42.68942        35.95856         2.05933
H         43.43114        36.54891         2.34242
O         45.22743        46.48085        -0.18522
H         46.08242        46.24654        -0.60490
O         37.67811        32.75186        -1.71441
H         38.54846        32.34113        -1.94761
O         33.73411        35.58766         1.54901
H         32.93889        35.08378         1.82635
O         37.10843        44.01118        -1.89919
H         36.49778        43.42102        -2.40783
