         429
 CSIRO Nanostructure Databank - Neutral Graphene Oxide Data Set
C          1.55738         2.06255         2.56328
C          1.53238         3.47199         2.51789
C          2.69159         1.36061         2.20774
C          2.65516         4.20461         2.12443
C          1.42954         6.40123         2.16696
C          1.40919         7.78689         2.02608
C          2.62746         5.67488         2.03467
C          2.58609         8.51983         1.80822
C          1.33844        10.78542         1.90233
C          1.35715        12.14062         1.98905
C          2.53719         9.99351         1.41071
C          2.50901        12.93697         1.60920
C          1.36900        15.13280         1.81408
C          1.41945        16.49715         1.85190
C          2.53610        14.33468         1.53280
C          2.64799        17.20660         1.61933
C          2.67638        18.64150         1.63145
C          3.86741         2.05661         1.80203
C          3.84629         3.49065         1.77842
C          5.04642         1.35978         1.45367
C          5.02834         4.18587         1.38962
C          3.81879         6.40313         1.79838
C          3.80958         7.81455         1.71919
C          5.08457         5.65924         1.58533
C          5.09598         8.55738         1.53917
C          3.79516        10.78277         1.83555
C          3.69870        12.16504         1.21528
C          5.11033        10.05902         1.54370
C          4.96897        12.89852         0.86302
C          3.79214        15.03539         1.27555
C          3.82214        16.48501         1.35632
C          4.97062        14.34792         1.01195
C          5.04777        17.19200         1.08411
C          3.82518        19.32942         1.34758
C          5.04462        18.63393         1.04408
C          6.20193         2.04657         1.02598
C          6.15797         3.48235         0.97504
C          7.40793         1.36755         0.69485
C          7.30935         4.18058         0.36933
C          6.28317         6.40990         1.09146
C          6.25436         7.87391         0.93991
C          7.33584         5.68217         0.33096
C          7.38884         8.56426         0.52849
C          6.25894        10.75653         0.90476
C          6.25122        12.15996         0.78624
C          7.40528        10.01463         0.51686
C          7.41510        12.87057         0.39536
C          6.31320        15.02260         1.12280
C          6.24048        16.49545         0.83416
C          7.43271        14.29713         0.41072
C          7.41198        17.18036         0.42087
C          6.22086        19.32120         0.73300
C          7.40991        18.63135         0.38090
C          8.59859         2.05514         0.33041
C          8.55871         3.45601         0.15602
C          9.83753         1.34556         0.15854
C          9.75240         4.20444        -0.24679
C          8.60597         6.41277         0.11829
C          8.59249         7.83759         0.13101
C          9.76828         5.68839        -0.16322
C          9.75867         8.53966        -0.25679
C          8.57282        10.70935         0.06568
C          8.58786        12.13601         0.02400
C          9.74406         9.98595        -0.32004
C          9.77737        12.83957        -0.32394
C          8.56209        15.01119        -0.03168
C          8.53731        16.45020        -0.03214
C          9.77214        14.29083        -0.38549
C          9.63967        17.20292        -0.62937
C          8.58510        19.33351         0.04958
C          9.74656        18.65976        -0.39487
C         11.08334         1.96771         0.03372
C         11.09621         3.45795        -0.17941
C         12.24609         1.16137        -0.16219
C         12.28692         4.33224        -0.04109
C         10.97868         6.39278        -0.41666
C         10.96309         7.81095        -0.51861
C         12.23320         5.69990        -0.43720
C         12.17174         8.48821        -0.88110
C         10.90449        10.69518        -0.70645
C         10.94384        12.10507        -0.64866
C         12.08292         9.92545        -1.18388
C         12.27660        12.81812        -0.61587
C         10.95424        14.98153        -0.70960
C         10.92687        16.43267        -0.97395
C         12.20652        14.30893        -0.87634
C         12.17930        17.19081        -0.97923
C         10.95218        19.31745        -0.64921
C         12.17368        18.61532        -0.90828
C         13.55602         1.63019         0.14532
C         13.51933         3.83590         0.37137
C         14.82148         1.38327        -0.31695
C         14.75639         4.39204        -0.07477
C         13.45423         6.40402        -0.65447
C         13.39731         7.81226        -0.98582
C         14.68980         5.70922        -0.59386
C         14.63474         8.54358        -1.19329
C         13.38372        10.65722        -1.47067
C         13.38575        12.11393        -1.33441
C         14.64618         9.90490        -1.36381
C         14.59017        12.83497        -1.69603
C         13.37490        15.03070        -1.08884
C         13.40243        16.48113        -1.05495
C         14.61082        14.32812        -1.51193
C         14.61867        17.19478        -1.13702
C         13.40953        19.30748        -0.96003
C         14.63499        18.61895        -1.06944
C         16.01088         2.13574         0.28292
C         15.98136         3.63228        -0.09311
C         17.28506         1.45467        -0.14605
C         17.18260         4.31477        -0.43978
C         15.90000         6.33286        -1.23674
C         15.95879         7.84050        -0.94424
C         17.20170         5.65409        -0.86604
C         17.11893         8.48305        -1.71543
C         15.91923        10.69808        -1.13090
C         15.88878        12.07777        -1.77530
C         17.18958         9.96049        -1.46135
C         17.18185        12.83608        -1.82984
C         15.92562        14.99245        -1.29173
C         15.91199        16.47700        -1.13407
C         17.19010        14.31481        -1.67978
C         17.13556        17.22812        -1.61133
C         15.89855        19.30506        -0.97773
C         17.12947        18.64897        -1.08835
C         18.45949         2.12226        -0.33081
C         18.47521         3.60221        -0.25344
C         19.69662         1.44106        -0.59634
C         19.75696         4.31248        -0.60888
C         18.43485         6.37737        -1.11759
C         18.42238         7.76225        -1.44140
C         19.69331         5.71467        -1.04521
C         19.64089         8.47114        -1.58769
C         18.40237        10.64273        -1.53582
C         18.43267        12.09569        -1.53496
C         19.64141         9.92074        -1.63752
C         19.62292        12.77864        -1.45015
C         18.37724        15.01344        -1.59438
C         18.41688        16.45234        -1.38230
C         19.65327        14.25723        -1.62604
C         19.59697        17.13695        -1.11517
C         18.35514        19.28420        -0.83099
C         19.59120        18.57899        -0.85593
C         20.88103         2.10100        -0.87865
C         20.95175         3.52234        -0.96004
C         22.08782         1.26401        -1.22531
C         22.14992         4.20213        -1.29136
C         20.89974         6.37572        -1.38260
C         20.87307         7.76539        -1.61018
C         22.16152         5.63464        -1.42229
C         22.12557         8.48950        -2.02345
C         20.87626        10.63602        -1.57337
C         20.86573        12.05240        -1.36012
C         22.12129         9.94933        -1.65176
C         22.07961        12.74301        -1.14341
C         20.90948        14.98215        -1.27021
C         20.86161        16.44139        -0.98720
C         21.98007        14.15741        -0.58250
C         22.02708        17.12210        -0.71486
C         20.79285        19.25222        -0.61703
C         22.05854        18.57951        -0.66710
C         23.39414         2.02475        -1.21929
C         23.38662         3.46734        -1.38746
C         24.55530         1.32238        -1.06109
C         24.59878         4.17696        -1.44313
C         23.38432         6.32520        -1.55435
C         23.40694         7.77624        -1.65165
C         24.62347         5.60118        -1.47959
C         24.58875         8.48017        -1.59796
C         23.33272        10.65446        -1.55640
C         23.29482        12.05794        -1.29225
C         24.61396         9.94037        -1.55940
C         24.55621        12.81253        -1.30593
C         23.30744        14.89989        -0.47394
C         23.30714        16.40786        -0.50835
C         24.58395        14.19386        -0.76051
C         24.56896        17.13597        -0.86558
C         23.25381        19.26919        -0.79219
C         24.50345        18.59461        -1.30921
C         25.86545         1.93963        -1.28556
C         25.88124         3.46401        -1.50412
C         27.09585         1.34984        -0.76207
C         27.12385         4.18923        -1.20762
C         25.87433         6.28444        -1.47538
C         25.90094         7.75332        -1.80508
C         27.09800         5.61683        -1.27014
C         27.08389         8.42646        -1.15442
C         25.81137        10.61470        -1.36775
C         25.87291        12.08199        -1.35537
C         27.06160         9.90661        -1.01939
C         27.08593        12.78123        -0.86412
C         25.84447        14.93205        -0.94009
C         25.81353        16.38221        -1.31072
C         27.05348        14.23560        -0.80991
C         27.05801        17.12428        -0.91627
C         25.80027        19.26862        -0.93056
C         27.01056        18.55925        -0.80740
C         28.26566         2.06002        -0.69977
C         28.30892         3.48701        -0.94245
C         29.49464         1.33812        -0.19972
C         29.57092         4.20398        -0.88088
C         28.37122         6.33628        -1.20809
C         28.38122         7.72665        -1.21320
C         29.59753         5.59445        -1.07991
C         29.63926         8.54426        -1.39553
C         28.33971        10.64960        -0.90987
C         28.26718        12.06705        -0.69519
C         29.56435         9.97687        -0.90122
C         29.49793        12.75843        -0.27174
C         28.26008        14.98034        -0.64801
C         28.25624        16.41272        -0.69507
C         29.47759        14.28593        -0.24045
C         29.48255        17.12293        -0.46953
C         28.23386        19.24718        -0.55634
C         29.46198        18.55824        -0.42755
C         30.79088         2.07773        -0.42817
C         30.78893         3.45348        -0.71468
C         31.97622         1.36961        -0.15398
C         32.07343         4.16903        -0.80339
C         30.90636         6.33623        -1.29093
C         30.87482         7.80593        -0.96763
C         32.08897         5.63259        -0.70326
C         32.05245         8.48646        -0.66838
C         30.79879        10.67276        -0.67793
C         30.79870        12.08222        -0.42911
C         32.04458         9.96100        -0.59315
C         31.98670        12.82109        -0.30388
C         30.75457        14.99858        -0.28397
C         30.72500        16.41800        -0.33694
C         31.97354        14.27904        -0.23309
C         31.94546        17.13579        -0.19884
C         30.68277        19.25661        -0.23915
C         31.91379        18.57522        -0.12590
C         33.23181         2.00197        -0.04315
C         33.34270         3.42269        -0.42892
C         34.38205         1.34308         0.40784
C         34.47944         4.20811         0.08398
C         33.26608         6.32765        -0.39554
C         33.26258         7.75799        -0.42840
C         34.46652         5.61636         0.02982
C         34.57278         8.48926        -0.41983
C         33.21969        10.67002        -0.34074
C         33.25105        12.11493        -0.26385
C         34.44553         9.92905         0.02584
C         34.45224        12.82288        -0.14900
C         33.18683        15.01036        -0.21464
C         33.17906        16.42517        -0.13581
C         34.46884        14.28728        -0.53827
C         34.40511        17.15400         0.09133
C         33.11974        19.26992         0.10346
C         34.34397        18.58005         0.27170
C         35.58126         2.05906         0.67548
C         35.56222         3.48656         0.64639
C         36.81712         1.36131         0.86141
C         36.69512         4.23447         1.17203
C         35.64445         6.36537         0.42972
C         35.69817         7.76757         0.27543
C         36.77956         5.67391         0.94273
C         36.86712         8.48948         0.65179
C         35.72358        10.66958         0.23118
C         35.79196        12.11576        -0.23252
C         36.97643         9.91007         0.45923
C         36.90708        12.82642         0.58652
C         35.74604        15.04719        -0.13097
C         35.64302        16.47915         0.23897
C         37.00446        14.31593         0.27676
C         36.76334        17.15809         0.77222
C         35.50913        19.27692         0.65154
C         36.69081        18.58246         0.97928
C         38.02758         2.02391         1.01340
C         38.03622         3.45071         1.35599
C         39.30068         1.38180         0.82891
C         39.27343         4.22507         1.24883
C         37.98245         6.36070         1.25445
C         37.97799         7.77307         1.18353
C         39.24596         5.63702         1.38767
C         39.12181         8.52187         1.69141
C         38.15180        10.62439         0.84673
C         38.28036        12.08253         0.42607
C         39.17132         9.97584         1.52840
C         39.42281        12.85282         1.11910
C         38.06736        15.07306         0.97325
C         37.95884        16.44795         1.17801
C         39.31187        14.37192         1.32965
C         39.02102        17.16622         1.85632
C         37.78937        19.27438         1.53613
C         38.92768        18.58657         2.00977
C         40.46688         2.09675         0.84038
C         40.48520         3.53090         1.01367
C         41.69028         4.26553         0.95537
C         40.48508         6.33906         1.40139
C         40.48681         7.76947         1.76145
C         41.68575         5.63772         1.16609
C         41.67956         8.63327         1.60746
C         40.33731        10.66541         2.20228
C         40.39645        12.15650         1.96798
C         41.62494         9.96510         1.78759
C         41.32356        12.87721         2.67654
C         40.26912        15.04117         2.22814
C         40.13938        16.48281         2.40992
C         41.29461        14.29867         2.77200
C         41.12973        17.21947         3.08894
C         39.96507        19.29559         2.67540
C         41.04509        18.61269         3.20960
O         19.32175         4.13538         0.80971
O         20.63566        14.66268        -2.66395
O         39.68260         8.01433         2.95663
O         13.49831         2.67369         1.13229
O         10.42755         3.72311        -1.45975
O         24.18637        16.98777         0.52019
O         26.83515         9.00586         0.16723
O         29.34039        13.47075         0.99360
O         34.83637        10.33608         1.38826
O         16.06443        15.61891         0.04191
O         36.82229        14.74751        -1.10066
O          4.05549        12.34289        -0.17848
O         16.55125        12.24056        -3.04708
O          6.18386         6.01716         2.51540
O         37.18574         3.80616         2.47879
O         25.29171        12.70910        -2.56822
O         26.00366         2.52729        -2.62501
O          5.52700         9.31718         2.74805
O         33.00835         3.66160        -1.84121
O         14.44456        13.77361        -2.85336
O         40.02432        13.77940         0.15529
O          6.86735         4.97438        -0.85202
O          9.95998        16.81645        -2.00629
O         12.47011        10.22660        -2.56951
O         24.07518        14.31982         0.63578
O         22.15676         0.10615        -0.38676
H         22.15487         0.40297         0.54624
O          6.68576        14.92329         2.56010
H          6.02308        15.44123         3.06620
O         34.96425         8.61404        -1.83999
H         34.90583         7.72251        -2.24499
O          2.52083         9.98408        -0.04096
H          1.64929         9.65235        -0.34004
O         40.20041        10.51448         3.64256
H         40.06433         9.54997         3.81874
O         12.66352        12.72726         0.82882
H         11.97839        13.20835         1.34216
O         22.11333         8.45882        -3.50413
H         22.82881         9.05458        -3.81488
O         24.40014        18.68534        -2.76578
H         24.98260        17.98220        -3.14717
O         16.26907         8.02652         0.46408
H         15.65290         7.47295         0.98992
O         38.63876        12.02808        -0.97746
H         39.17848        12.84031        -1.15489
O         16.96373        17.32091        -3.06053
H         17.75759        17.75836        -3.43371
O         31.11470         6.27688        -2.78636
H         31.44711         5.37439        -2.99345
O         34.46223        14.25943        -2.00369
H         35.22613        13.68398        -2.26350
O         36.54248        12.76814         1.98087
H         36.10174        11.90916         2.16852
O         15.71852         6.16087        -2.66964
H         15.53997         5.21317        -2.84022
O         21.49029        14.00549         0.77796
H         22.27738        13.83555         1.34586
O         25.74490        16.37982        -2.80457
H         26.51664        15.87149        -3.13593
O         29.74614         8.68064        -2.86361
H         30.14039         7.83892        -3.20301
O         16.83541         8.36304        -3.13825
H         17.51340         8.87253        -3.62959
O         36.11713        12.10176        -1.64371
H         37.09645        11.95879        -1.73357
O         26.15766         7.84472        -3.24719
H         25.49323         7.28973        -3.70787
O         29.55836         0.01430        -0.74416
H         29.62099         0.08835        -1.71846
O         15.99380         2.02804         1.73085
H         15.09766         2.31269         2.02649
O         15.96333        10.94404         0.31372
H         16.10896        10.06569         0.74189
O          3.71684        11.00583         3.25796
H          4.27354        10.31123         3.68646
H          0.65427         1.52286         2.88084
H          0.60506         3.98555         2.80515
H          2.70014         0.26170         2.23480
H          0.48000         5.87904         2.34449
H          0.44129         8.30342         2.08656
H          0.40926        10.25617         2.16132
H          0.44611        12.65666         2.32783
H          0.41020        14.62757         1.99488
H          0.50837        17.07753         2.05847
H          1.74567        19.18369         1.85366
H          5.05942         0.26148         1.51284
H          3.82846        20.42909         1.33966
H          7.43434         0.27082         0.77448
H          6.22061        20.42147         0.72688
H          9.80908         0.24836         0.23580
H          8.59763        20.43080         0.12974
H         12.09756         0.10646        -0.43970
H         10.99457        20.41114        -0.53526
H         14.98899         0.67247        -1.13805
H         13.41235        20.40409        -0.87203
H         17.27869         0.35437        -0.18277
H         15.88752        20.37918        -0.73510
H         19.69820         0.34078        -0.58360
H         18.36053        20.34675        -0.54254
H         21.94212         0.87970        -2.27572
H         20.77670        20.34442        -0.48301
H         24.50334         0.25434        -0.79899
H         23.23374        20.37055        -0.78795
H         27.08187         0.30406        -0.41959
H         25.82185        20.36741        -0.85940
H         29.38470         1.20659         0.91556
H         28.22649        20.34487        -0.48494
H         31.89359         0.30171         0.09628
H         30.67030        20.35493        -0.18471
H         34.35865         0.25476         0.56581
H         33.10263        20.36443         0.21048
H         36.82021         0.27131         0.70815
H         35.46847        20.36774         0.78488
H         39.31945         0.29649         0.65193
H         37.72347        20.36397         1.67132
H         41.42666         1.58345         0.68425
H         42.63841         3.73990         0.77481
H         42.64175         6.17905         1.16685
H         42.62657         8.16462         1.30078
H         42.53714        10.56964         1.67080
H         42.05953        12.33482         3.28691
H         42.05829        14.77908         3.39826
H         41.99865        16.70642         3.52146
H         39.88794        20.38744         2.77596
H         41.84074        19.16033         3.73341
