         404
 CSIRO Nanostructure Databank - Neutral Graphene Oxide Data Set
C          1.10699         3.59927        -0.68267
C         -0.08971         4.25037        -0.42392
C          1.09337         6.34899         0.01723
C         -0.10294         5.60786        -0.08051
C          1.09876         7.76025         0.35471
C         -0.10405         8.46506         0.59900
C          1.10721        10.55385         0.95584
C         -0.10214         9.81557         0.88482
C          1.10773        11.98053         1.18093
C         -0.10260        12.71883         1.23682
C          1.10456        14.83195         1.41516
C         -0.10609        14.09322         1.34726
C          1.11344        16.27520         1.44242
C         -0.09497        17.01638         1.41654
C          1.12926        19.12509         1.42133
C         -0.08547        18.39431         1.39272
C          1.13935        20.57111         1.31603
C         -0.06164        21.29235         1.15754
C          1.15743        23.37395         0.85703
C         -0.05370        22.65940         0.94245
C          1.16806        24.78282         0.52193
C         -0.01773        25.51179         0.30871
C          1.22072        27.52673        -0.28499
C          0.00856        26.85132        -0.06612
C          1.24473        28.93632        -0.69425
C          0.05614        29.67611        -0.88521
C          1.28299        31.64627        -1.65969
C          0.08261        30.98923        -1.35503
C          1.32075        33.05335        -2.05726
C          0.12247        33.81649        -2.16941
C          1.38072        35.82845        -2.69721
C          0.14991        35.15495        -2.50622
C          1.42544        37.22604        -3.00584
C          3.56055         3.65395        -0.86621
C          2.33811         4.30312        -0.59476
C          3.57013         6.40351        -0.13105
C          2.33306         5.69253        -0.23493
C          3.57281         7.78868         0.21650
C          2.33203         8.46803         0.44378
C          3.57894        10.57028         0.88747
C          2.33520         9.86372         0.75743
C          3.56286        11.94400         1.23895
C          2.34456        12.67772         1.31516
C          3.54985        14.85843         1.49016
C          2.33614        14.11986         1.43684
C          3.58120        16.26718         1.50864
C          2.34702        16.99013         1.48712
C          3.59520        19.13983         1.67407
C          2.35238        18.42069         1.50636
C          3.60919        20.58907         1.59260
C          2.37539        21.27723         1.32059
C          3.63390        23.38629         1.01849
C          2.38634        22.68188         1.07167
C          3.64714        24.76551         0.64283
C          2.41653        25.44866         0.36425
C          3.69816        27.43926        -0.27815
C          2.43473        26.80289        -0.07830
C          3.69824        28.75827        -0.94828
C          2.47247        29.56586        -0.98898
C          3.74672        31.57475        -1.69315
C          2.51933        30.92536        -1.47095
C          3.82824        32.90162        -2.39583
C          2.55091        33.69893        -2.28976
C          3.84826        35.78465        -2.68164
C          2.59661        35.09267        -2.57338
C          3.86578        37.18969        -2.92600
C          2.62114        37.88105        -3.12625
C          6.00307         3.68232        -1.07593
C          4.79047         4.33988        -0.77604
C          6.03868         6.41863        -0.25754
C          4.80174         5.72946        -0.38496
C          6.04474         7.80457         0.11728
C          4.81045         8.49612         0.33291
C          6.07496        10.58575         0.78740
C          4.82007         9.87951         0.68136
C          6.09137        11.93490         1.15405
C          4.83981        12.61900         1.50156
C          6.04493        14.89487         1.16763
C          4.82333        14.13840         1.63163
C          6.06908        16.32937         1.65682
C          4.83291        16.99249         1.67918
C          5.98605        19.11803         2.31984
C          4.78246        18.41625         1.85001
C          6.00120        20.63581         2.24359
C          4.81099        21.32304         1.69704
C          6.07784        23.46280         1.37252
C          4.84964        22.72358         1.36679
C          6.10629        24.80900         0.94207
C          4.88096        25.46997         0.57484
C          6.13969        27.65860         0.30733
C          4.88628        26.82697         0.11598
C          6.23107        28.85045        -0.58533
C          5.03267        29.44234        -1.14310
C          6.26579        31.69602        -1.19389
C          4.98722        30.93360        -1.23650
C          6.26523        33.09639        -1.68104
C          5.07591        33.71386        -2.09378
C          6.30881        35.82840        -2.39331
C          5.08376        35.09917        -2.41355
C          6.32028        37.26220        -2.64196
C          5.08102        37.90011        -2.91567
C          8.45509         3.71008        -1.31519
C          7.24043         4.35744        -0.99213
C          8.51085         6.38232        -0.41391
C          7.26198         5.72938        -0.55595
C          8.52474         7.71457         0.20759
C          7.28126         8.49605         0.29993
C          8.57920        10.60222         0.55788
C          7.32053         9.87337         0.58697
C          8.61121        12.04290         0.78881
C          7.36536        12.66768         1.29472
C          8.53092        14.98223         1.08578
C          7.33138        14.15940         1.43117
C          8.54153        16.34813         1.65208
C          7.33340        16.97847         1.92657
C          8.60698        19.14550         2.59137
C          7.29065        18.37075         2.46316
C          8.61496        20.60342         2.30555
C          7.32188        21.35728         2.30833
C          8.63797        23.46590         1.65796
C          7.31140        22.80797         1.90259
C          8.63262        24.87283         1.13726
C          7.35926        25.54180         0.79581
C          8.66987        27.56732         0.21972
C          7.41336        26.85321         0.35550
C          8.72981        28.88933        -0.23031
C          7.54497        29.46129        -0.95855
C          8.73444        31.64776        -1.00866
C          7.54856        30.96673        -1.03611
C          8.75481        33.05942        -1.45759
C          7.48699        33.80165        -1.69013
C          8.79498        35.89094        -2.11444
C          7.50911        35.15671        -2.07449
C          8.79795        37.39747        -2.29483
C          7.49617        38.01701        -2.51693
C         10.88953         3.77257        -1.69332
C          9.68804         4.39756        -1.28180
C         10.94555         6.51450        -0.90892
C          9.71360         5.76356        -0.82094
C         10.98151         7.85414        -0.51112
C          9.85846         8.48511         0.19242
C         10.97219        10.71461        -0.08848
C          9.76475         9.94994         0.24894
C         10.98498        12.20271         0.10249
C          9.74969        12.80177         0.61628
C         11.09229        14.97519         0.93745
C          9.79136        14.27879         0.76378
C         11.13138        16.28218         1.43605
C          9.87327        16.92114         1.96431
C         11.17702        19.11219         2.42224
C          9.88923        18.34978         2.45087
C         11.13847        20.59692         2.19278
C          9.81865        21.27815         1.98795
C         11.10293        23.24949         1.11458
C          9.84696        22.62575         1.57919
C         11.12482        24.71993         0.70700
C          9.88831        25.50520         0.71232
C         11.16590        27.58613         0.48538
C          9.91166        26.86569         0.46704
C         11.15041        29.02333         0.30862
C          9.95300        29.64365        -0.19058
C         11.17083        31.78376        -0.40695
C          9.97581        31.01355        -0.57836
C         11.19375        33.19645        -0.64148
C         10.01826        33.83243        -1.27585
C         11.02878        36.16225        -0.83743
C          9.88363        35.31876        -1.26032
C         11.11125        37.57322        -1.31237
C          9.98704        38.16536        -1.86605
C         13.30327         3.86461        -2.22204
C         12.10783         4.49124        -1.79017
C         13.32385         6.62473        -1.68251
C         12.12565         5.89016        -1.46646
C         13.35651         8.08166        -1.43719
C         12.13870         8.70405        -0.83573
C         13.48071        10.79473        -0.28423
C         12.26661         9.95529         0.00876
C         13.48836        12.14049        -0.01238
C         12.27960        12.91077         0.26063
C         13.56704        15.06605         0.44082
C         12.30043        14.25740         0.60442
C         13.60560        16.38504         1.19458
C         12.40093        16.96294         1.61960
C         13.73566        19.11015         2.10592
C         12.44774        18.31481         2.23621
C         13.63924        20.58121         1.91576
C         12.41269        21.27493         1.82794
C         13.61437        23.36297         1.26874
C         12.40337        22.63140         1.44179
C         13.60338        24.77156         0.94681
C         12.40345        25.45302         0.76815
C         13.55821        27.62899         1.12500
C         12.35821        26.88633         0.70656
C         13.48295        29.14464         1.14726
C         12.31343        29.79088         0.51982
C         13.53498        31.94987         0.26516
C         12.34858        31.17351         0.13935
C         13.55352        33.33860        -0.01236
C         12.31706        33.97516        -0.35744
C         13.53055        36.24677        -0.24623
C         12.25575        35.45876        -0.34044
C         13.54498        37.64685        -0.74944
C         12.35283        38.26251        -1.17898
C         15.72194         3.96675        -2.77154
C         14.50184         4.59254        -2.38047
C         15.66713         6.85069        -2.55444
C         14.49049         6.00253        -2.13011
C         15.78485         8.15418        -1.79421
C         14.66985         8.74677        -1.26637
C         15.92856        10.88747        -0.84050
C         14.77041        10.00953        -0.43217
C         16.00201        12.15706        -0.35329
C         14.80085        12.80071         0.23320
C         16.09278        15.01697         0.53347
C         14.83022        14.24600         0.62217
C         16.09075        16.35297         0.85315
C         14.87892        17.06102         1.25511
C         16.18718        19.16450         1.70080
C         14.96864        18.42816         1.62676
C         16.10480        20.57694         1.88004
C         14.84841        21.29319         1.72962
C         16.09485        23.45750         1.53023
C         14.85069        22.69391         1.51133
C         16.10574        24.80190         1.24515
C         14.90305        25.50594         0.67462
C         16.04664        27.72844         1.14801
C         14.87749        26.97975         1.06476
C         16.05342        29.15975         1.24383
C         14.77521        29.88817         1.24708
C         16.07207        31.91920         0.43545
C         14.76342        31.33144         0.80249
C         16.06752        33.40201         0.07782
C         14.77783        34.10595         0.01712
C         16.02413        36.22505        -0.21333
C         14.80360        35.49755        -0.16226
C         16.00831        37.64460        -0.47927
C         14.78113        38.30442        -0.79530
C         18.17448         4.00367        -3.09049
C         16.94053         4.68206        -2.83123
C         18.18729         6.79305        -2.59905
C         16.97019         6.09040        -2.60135
C         18.22228         8.22177        -2.31080
C         17.05434         8.84727        -1.86160
C         18.34762        11.06162        -1.73228
C         17.02984        10.29296        -1.62519
C         18.45108        12.35823        -1.04588
C         17.29459        12.87964        -0.30481
C         18.54746        15.09268        -0.12453
C         17.35691        14.29638         0.24254
C         18.54753        16.46944         0.17445
C         17.41042        17.03216         0.96234
C         18.74051        19.18284         1.08166
C         17.49265        18.44644         1.47132
C         19.02913        20.42591         1.65316
C         17.22302        21.39424         2.17278
C         18.60704        23.41753         1.79218
C         17.33906        22.76283         1.86220
C         18.56759        24.92220         1.97108
C         17.38393        25.54907         1.25016
C         18.58309        27.81210         1.50486
C         17.36391        27.04238         1.14201
C         18.54719        29.22590         1.50327
C         17.26621        29.91453         1.30213
C         18.44446        32.14175         1.21243
C         17.26513        31.29693         1.01980
C         18.49135        33.52764         0.69078
C         17.29941        34.16929         0.28055
C         18.48356        36.31506         0.11475
C         17.26814        35.57029         0.05485
C         18.45372        37.72240        -0.15378
C         17.21865        38.35438        -0.45884
C         19.36326         4.69453        -3.12494
C         20.62346         6.82601        -2.93884
C         19.40124         6.09643        -2.87874
C         20.65946         8.18159        -2.71081
C         19.48629         8.92901        -2.36921
C         20.79381        11.03192        -1.91475
C         19.57317        10.30354        -2.02001
C         20.82387        12.36135        -1.55062
C         19.65465        13.05091        -1.07455
C         20.77340        15.28559        -1.07001
C         19.67719        14.47109        -0.71553
C         20.74669        16.65229        -0.84624
C         19.64838        17.26789        -0.20834
C         20.70794        19.55005        -0.30062
C         19.68827        18.68195         0.15951
C         20.78349        20.88013         0.10228
C         19.92980        21.36001         1.11748
C         21.02192        23.54636         1.38604
C         19.85231        22.77525         1.51033
C         21.01658        24.95234         1.46936
C         19.84608        25.66119         1.66478
C         20.99861        27.86432         1.80344
C         19.80936        27.11562         1.66025
C         20.97586        29.24902         1.74078
C         19.76721        29.95033         1.58657
C         20.98476        32.17358         1.14842
C         19.78309        31.43374         1.53232
C         20.94161        33.51101         0.87553
C         19.71396        34.24241         0.71315
C         20.89542        36.43957         0.44853
C         19.71621        35.65987         0.41325
C         20.86187        37.81104         0.18416
C         19.66491        38.45441        -0.11744
O         14.85990        13.21962         1.65605
O         11.24011        20.02805         3.54824
O         17.35656        11.07356        -2.82949
O          8.93877        14.91634        -0.33239
O          9.18040        36.41796        -3.39624
O         10.84286        11.58925        -1.24329
O         16.19376        32.32927        -0.95804
O          9.70688        33.25542        -2.58468
O          7.87552        18.65231         3.75776
O         11.06448        23.64856        -0.31776
O          5.45072        31.53478         0.04861
O         13.24525        28.37615         2.36529
O          9.38289         7.79385         1.38831
O          7.22190        22.42536         3.31915
O          9.99009        17.25307         3.39962
O          5.69374        19.93879         3.49164
O          9.88663        35.90686         0.07495
O         13.32050        18.50923         3.38314
O         14.70349        30.99271         2.22220
O          4.90873        13.33000         2.81625
O         17.64759        13.16516         1.11831
O          8.77913        24.60372         2.60797
O          7.49538        13.36382         2.61838
O         17.63827        26.18212        -0.05282
O          4.39290        28.73397        -2.26620
O         12.69393        36.03157         0.94325
O         18.98948        32.05862         2.57962
O         18.31462        20.78765         2.80367
O         17.75167        17.31901         2.37137
O         12.40932         8.86733        -2.26341
O          5.99813        28.19851         1.68771
H          6.10461        27.44749         2.31132
O         15.06776        25.49224        -0.78729
H         16.00013        25.77741        -0.95952
O          5.92252        14.94617        -0.29045
H          6.79511        15.20752        -0.66273
O          7.75157        29.04672        -2.38066
H          8.57250        29.48334        -2.69662
O         15.10370         9.53427         0.93359
H         15.36408        10.31956         1.46550
O         18.27032        25.15308         3.39158
H         18.94362        24.67772         3.92274
O         15.38754         7.23233        -3.94800
H         15.29771         6.40554        -4.46749
O          3.96999        32.57820        -3.83909
H          3.18707        32.04683        -4.09925
O         12.38825         9.53084         1.39237
H         13.32939         9.26327         1.54013
O         13.60573        15.43597        -0.98400
H         12.72703        15.79737        -1.22736
H          1.11552         2.53479        -0.95675
H         -1.03946         3.70163        -0.49096
H         -1.07128         6.08776         0.11224
H         -1.06814         7.94191         0.55534
H         -1.06464        10.31274         1.06099
H         -1.06729        12.20071         1.16174
H         -1.07310        14.61219         1.36077
H         -1.06296        16.49963         1.39998
H         -1.04790        18.91992         1.35528
H         -1.02944        20.77642         1.18537
H         -1.01374        23.17412         0.80989
H         -0.99583        25.03202         0.44287
H         -0.94936        27.36993        -0.20262
H         -0.92126        29.21737        -0.68732
H         -0.87755        31.50694        -1.48120
H         -0.85076        33.33668        -2.00192
H         -0.79044        35.71600        -2.60610
H          0.47775        37.76992        -3.13040
H          3.55584         2.59292        -1.15628
H          2.64650        38.95828        -3.34582
H          5.98136         2.62784        -1.38785
H          5.06828        38.98584        -3.09373
H          8.43223         2.65987        -1.64193
H          7.43061        39.11530        -2.54485
H         10.86752         2.71325        -1.98946
H         10.01511        39.23793        -2.11363
H         13.29383         2.78745        -2.44475
H         12.40505        39.30357        -1.53267
H         15.72917         2.88251        -2.95651
H         14.81667        39.36085        -1.10123
H         18.15609         2.91881        -3.26866
H         17.21157        39.43483        -0.66676
H         20.30416         4.16748        -3.34011
H         21.55070         6.28731        -3.18270
H         21.62447         8.70124        -2.78184
H         21.74312        10.54027        -2.16804
H         21.79300        12.87768        -1.53918
H         21.65793        14.84427        -1.54759
H         21.61838        17.25175        -1.13945
H         21.42550        19.19187        -1.05041
H         21.51638        21.54942        -0.36914
H         21.97042        23.03897         1.16385
H         21.96377        25.48206         1.29596
H         21.95679        27.35399         1.96765
H         21.91939        29.80136         1.84486
H         21.94074        31.63904         1.05734
H         21.88876        34.02378         0.65704
H         21.85927        35.97492         0.69546
H         21.79638        38.38851         0.21877
H         19.65162        39.53337        -0.32710
