         762
 CSIRO Nanostructure Databank - Neutral Graphene Oxide Data Set
C         23.18082        25.39524        -3.07623
C         22.06327        26.16376        -3.36007
C         23.22947        28.18821        -2.65887
C         22.08650        27.54846        -3.16288
C         23.23993        29.62756        -2.43831
C         22.21811        30.46546        -2.86454
C         23.43962        32.54639        -2.37599
C         22.31424        31.87711        -2.84248
C         23.64840        33.97330        -2.54108
C         22.62835        34.79903        -3.08062
C         23.91661        36.81610        -2.59823
C         22.75663        36.17099        -3.10483
C         24.00594        38.25595        -2.52422
C         22.96784        39.08437        -3.01278
C         24.08158        41.07242        -2.15030
C         22.99872        40.45028        -2.81433
C         24.01591        42.49103        -1.79219
C         22.79564        43.20189        -1.89785
C         23.81588        45.17221        -0.90797
C         22.71158        44.52117        -1.50370
C         23.72555        46.54543        -0.46363
C         22.59499        47.33592        -0.76821
C         23.53285        49.19418         0.44963
C         22.51438        48.65241        -0.33842
C         25.50766        23.74685        -2.41847
C         25.54762        25.19564        -2.34556
C         24.36623        25.99092        -2.57490
C         25.58267        28.01761        -1.82729
C         24.38809        27.40449        -2.34632
C         25.61489        29.43796        -1.53407
C         24.36922        30.21583        -1.70847
C         25.76647        32.38806        -1.40689
C         24.45788        31.76757        -1.65974
C         25.91751        33.76802        -1.57588
C         24.85569        34.58607        -2.10004
C         26.16693        36.67192        -1.61213
C         24.99183        36.01811        -2.12582
C         26.23375        38.05293        -1.48280
C         25.13802        38.86987        -1.91162
C         26.42321        40.93552        -1.31719
C         25.18934        40.29198        -1.75816
C         26.48594        42.46632        -1.34065
C         25.13313        43.12775        -1.23506
C         26.11582        45.05488         0.00977
C         25.03152        44.45470        -0.73281
C         25.99510        46.35058         0.54245
C         24.79691        47.10962         0.28662
C         25.69150        48.98147         1.66761
C         24.66161        48.43375         0.79073
C         25.42632        50.14408         2.39508
C         27.95689        23.59904        -2.21573
C         26.61981        22.98333        -2.31369
C         27.99694        25.05499        -1.87901
C         26.75659        25.82963        -2.00406
C         27.96080        27.81501        -1.13102
C         26.74081        27.22144        -1.68986
C         27.98446        29.29730        -0.82719
C         26.78160        30.10040        -1.14527
C         28.16539        32.14410        -0.95380
C         26.88573        31.54898        -1.08206
C         28.32830        33.58032        -0.66989
C         27.11815        34.42446        -1.02710
C         28.53139        36.50022        -0.62950
C         27.42732        35.85085        -1.44808
C         28.59802        37.86471        -0.53339
C         27.34359        38.70691        -0.68257
C         28.81996        40.82640        -0.70459
C         27.53024        40.17119        -1.03847
C         28.70304        42.22674        -0.16670
C         27.44537        43.00372        -0.28448
C         28.22667        44.76649         1.37070
C         27.30304        44.25213         0.26933
C         28.28740        46.28759         1.51100
C         27.08996        46.98130         1.28161
C         27.99241        48.88902         2.61913
C         26.93974        48.29828         1.83151
C         27.63344        50.05716         3.35899
C         26.38209        50.65238         3.27469
C         30.27930        20.55332        -1.68175
C         29.15745        21.27515        -1.86301
C         30.44491        23.41325        -1.52936
C         29.19956        22.74993        -2.06332
C         30.43845        24.89345        -1.33732
C         29.18814        25.66102        -1.56914
C         30.55981        27.84098        -1.14402
C         29.25984        27.13799        -1.44412
C         30.54305        29.23679        -0.64830
C         29.29917        29.95589        -0.86010
C         30.98510        32.25942        -0.19377
C         29.29720        31.30550        -1.13373
C         30.69280        33.48923         0.29416
C         29.61603        34.28563        -0.31423
C         30.64402        36.30156         0.72027
C         29.62953        35.65695        -0.17419
C         30.93824        37.75091         0.52195
C         29.91453        38.51357        -0.25763
C         31.36012        40.70541         0.04222
C         30.05242        39.99534        -0.41100
C         31.12354        42.15670         0.49332
C         29.76771        42.70422         0.74891
C         30.82117        44.87656         1.55978
C         29.58764        44.05858         1.36819
C         30.73331        46.30035         2.00375
C         29.40003        46.96623         2.10159
C         30.58646        49.00266         2.96527
C         29.29895        48.26776         2.63058
C         30.66458        50.43187         3.38549
C         29.60947        51.23433         3.83754
C         30.88419        53.25595         3.44526
C         29.73261        52.63000         3.92768
C         33.00887        18.97327        -1.69442
C         32.82107        20.36520        -1.27214
C         31.63586        21.15866        -1.75969
C         32.99456        23.31318        -1.25133
C         31.73562        22.65561        -1.69790
C         33.01137        24.79267        -1.27773
C         31.75572        25.62136        -1.36569
C         32.90125        27.64763        -0.39926
C         31.78335        27.04929        -0.91983
C         32.90937        29.05929         0.01797
C         31.67193        29.80617        -0.07224
C         32.86828        31.74873         1.15054
C         31.57959        31.14702         0.64561
C         32.75973        33.14289         1.69582
C         31.41327        33.91727         1.55645
C         32.72333        36.07109         2.37480
C         31.51533        35.47105         1.62138
C         32.76525        37.66482         2.30680
C         31.95604        38.36719         1.18650
C         33.26113        40.45152         1.90222
C         32.05516        39.87674         1.18950
C         33.76691        41.82472         1.69768
C         32.17062        42.94423         0.86721
C         33.06680        44.57812         2.58400
C         32.09429        44.11902         1.71381
C         32.75285        45.79896         3.29306
C         31.82927        46.73754         2.90005
C         33.09688        48.87820         3.76659
C         31.90853        48.20001         3.14140
C         33.06761        50.27893         3.67226
C         31.93774        51.07573         3.28796
C         33.16236        53.12819         2.40305
C         32.03044        52.50701         3.11501
C         33.07635        54.35253         1.76867
C         35.35478        18.97860        -0.94205
C         34.17882        18.31833        -1.46112
C         35.33888        20.34625        -0.75535
C         34.07917        21.11362        -0.84685
C         35.41424        23.27477        -0.76441
C         34.13687        22.59937        -0.96145
C         35.38869        24.72053        -0.66273
C         34.22835        25.45140        -0.78440
C         35.39452        27.54267         0.11983
C         34.13084        26.83164        -0.24007
C         35.36583        28.99495         0.50159
C         34.06366        29.70417         0.47872
C         35.34320        31.72722         1.36115
C         34.05278        31.06867         0.99488
C         35.34608        33.15801         1.80209
C         34.03966        33.88330         2.00809
C         35.35739        36.08806         2.18485
C         34.03351        35.39663         1.96992
C         35.37937        37.47890         2.68342
C         34.19913        38.20705         2.43435
C         35.39575        40.21197         3.17724
C         34.28270        39.59503         2.54358
C         35.17494        41.57564         3.56456
C         34.44360        42.45331         2.73903
C         35.68352        44.68876         3.34570
C         34.45925        43.97149         2.78208
C         35.77593        46.16452         3.66697
C         34.60705        46.84388         4.07828
C         36.11246        49.16187         3.28466
C         34.32692        48.22112         4.13166
C         35.83352        50.38326         2.57520
C         34.80942        51.24311         2.95200
C         35.41390        52.84203         1.07245
C         34.34981        52.30445         2.06090
C         35.17617        54.16698         0.43320
C         34.02839        54.83150         0.79994
C         37.84593        16.19761        -1.50034
C         36.66944        16.78322        -1.16810
C         37.86287        18.95273        -0.87492
C         36.61217        18.16470        -0.58167
C         37.89979        20.31825        -0.44526
C         36.55534        21.09801        -0.38403
C         37.89007        23.20722        -0.30121
C         36.60462        22.56280        -0.54748
C         37.96486        24.68458        -0.39999
C         36.68011        25.43460        -0.56644
C         37.97096        27.62199        -0.13793
C         36.66571        26.91923        -0.36343
C         37.93873        29.10385         0.15430
C         36.65268        29.75650         0.57173
C         37.87653        31.86897         1.26944
C         36.61933        31.28966         0.60768
C         37.85703        33.14661         1.75578
C         36.61301        33.97457         1.53315
C         37.81367        35.86753         2.94634
C         36.57605        35.23902         2.37838
C         37.82199        37.32926         3.23724
C         36.58359        38.10432         3.14716
C         37.85636        40.19764         3.88195
C         36.58460        39.48742         3.48661
C         38.05198        41.69225         3.70972
C         36.99084        42.61888         4.06192
C         38.26911        44.61760         3.52333
C         36.93402        43.91970         3.65432
C         38.16119        45.98663         2.85612
C         36.93840        46.79546         3.16873
C         37.75364        48.53425         1.58082
C         36.97969        48.17985         2.81072
C         37.92665        49.99334         1.31968
C         36.76007        50.84182         1.58071
C         37.88012        52.64563         0.42589
C         36.71867        52.14374         1.10065
C         37.34945        54.24662        -0.88120
C         35.96192        54.51379        -0.78396
C         36.04716        54.93173        -3.17127
C         35.32068        54.89016        -1.97744
C         40.37696        14.75721        -1.40242
C         40.33611        16.19291        -1.43363
C         39.11418        16.88130        -1.45859
C         40.37161        19.03192        -1.01797
C         39.09064        18.38890        -1.54409
C         40.38406        20.32248        -0.56627
C         39.13044        21.13241        -0.78282
C         40.31589        23.17461         0.25695
C         39.06889        22.50866        -0.18223
C         40.39302        24.64650         0.27047
C         39.18427        25.41512         0.03532
C         40.31433        27.45357         0.82180
C         39.16257        26.79106         0.16758
C         40.35007        28.94615         0.90444
C         39.19351        29.81269         0.49727
C         40.32398        31.75652         1.46982
C         39.14541        31.16305         1.12129
C         40.31562        33.01898         2.23629
C         39.14570        33.92156         1.93145
C         40.27674        35.72165         3.24921
C         39.12104        35.16643         2.79337
C         40.26393        37.13792         3.68911
C         39.02131        37.92864         3.52135
C         40.39227        40.03533         3.32474
C         39.13174        39.38533         3.80503
C         40.32963        41.38497         2.76834
C         39.19391        42.21699         3.14235
C         40.28873        44.13293         1.84112
C         39.34797        43.69117         2.93287
C         40.11692        45.45967         1.17820
C         39.07299        46.37577         1.72349
C         39.70022        48.08748        -0.08707
C         38.70250        47.59046         0.92658
C         39.82845        49.52120        -0.34347
C         38.93463        50.47123         0.32077
C         39.66444        52.27064        -1.28378
C         38.78379        51.82531        -0.22981
C         39.41925        53.41570        -2.11599
C         38.09522        54.10141        -2.07453
C         39.14212        55.13992        -4.71451
C         37.38878        54.51898        -3.22674
C         39.04922        56.06491        -5.76373
C         42.79307        14.78126        -1.56430
C         41.56774        14.07814        -1.44415
C         42.81931        16.16551        -1.57795
C         41.59853        16.91523        -1.42689
C         42.85156        19.04397        -1.04670
C         41.62174        18.30090        -1.15526
C         42.89425        20.34119        -0.53347
C         41.63169        20.86200         0.12153
C         42.89482        23.13532         0.32298
C         41.61684        22.37971         0.35607
C         42.85517        24.51639         0.61412
C         41.61446        25.24429         0.59283
C         42.90225        27.44417         1.11062
C         41.60332        26.68124         0.98459
C         42.92688        28.91968         1.07173
C         41.65899        29.64755         0.90946
C         42.87436        31.76597         1.60159
C         41.61903        31.11755         1.19196
C         42.87021        32.95200         2.26461
C         41.60218        33.58175         2.74933
C         42.82480        35.81207         3.09666
C         41.60390        34.97005         3.40985
C         42.82677        37.14511         3.30419
C         41.58524        37.89142         3.62903
C         42.69384        39.82739         2.43739
C         41.54337        39.30056         3.17830
C         42.44263        40.96487         1.47695
C         41.30723        41.85046         1.91807
C         42.24413        43.60756         0.29563
C         41.01105        43.04644         1.04022
C         42.16712        45.04964        -0.18317
C         40.99867        45.88016         0.22706
C         42.09256        47.87500        -0.97258
C         40.88474        47.21026        -0.44431
C         42.02779        49.22335        -1.40668
C         40.86088        50.04085        -1.10733
C         41.91522        52.00583        -2.16642
C         40.80063        51.42912        -1.52877
C         41.76322        53.27075        -2.76799
C         40.47749        53.82951        -2.98596
C         41.53888        55.36060        -4.69697
C         40.37017        54.82355        -4.08005
C         41.43825        56.27153        -5.75770
C         40.19925        56.66960        -6.26163
C         45.38488        16.23531        -1.74953
C         44.08168        16.90762        -1.81028
C         45.37430        19.07685        -1.27130
C         44.08900        18.41790        -1.54379
C         45.37875        20.42009        -0.78443
C         44.12350        21.07915        -0.40801
C         45.41366        23.09632         0.30456
C         44.11767        22.41664         0.05976
C         45.44696        24.57130         0.59644
C         44.12270        25.27667         0.84584
C         45.34552        27.45589         0.70088
C         44.15829        26.74717         0.80971
C         45.36294        28.90415         0.91998
C         44.10810        29.60980         1.09873
C         45.39849        31.70046         1.63578
C         44.13386        31.13707         1.03474
C         45.42365        33.00114         2.18083
C         44.13191        33.72989         2.29089
C         45.36999        35.78260         3.17918
C         44.09702        35.15201         2.70231
C         45.37629        37.26708         3.11632
C         44.07458        38.00170         3.36836
C         45.10967        39.66624         1.68090
C         43.90664        39.21608         2.48351
C         44.95227        41.09016         1.17960
C         43.71162        41.73935         1.12740
C         44.73622        43.62766        -0.16668
C         43.57203        42.98911         0.47836
C         44.64009        45.04202        -0.75265
C         43.38272        45.79301        -0.58920
C         44.48700        47.69422        -1.70776
C         43.31235        47.11811        -1.00710
C         44.41313        49.12816        -2.19682
C         43.17809        49.89115        -1.93895
C         44.35704        51.92645        -2.66035
C         43.16053        51.26096        -2.24535
C         44.30461        53.39094        -2.85301
C         42.97269        54.12783        -3.02795
C         44.07887        55.75521        -4.51925
C         42.91551        54.78345        -4.41066
C         46.53931        16.94426        -1.70496
C         47.83382        19.06306        -1.40691
C         46.57795        18.37826        -1.50503
C         47.84373        20.44450        -1.05845
C         46.61792        21.08433        -0.71439
C         47.87775        23.26117        -0.45369
C         46.69099        22.44210        -0.15877
C         47.65439        24.74177        -0.70741
C         46.59795        25.39048         0.16777
C         47.73242        27.58903        -0.08310
C         46.55836        26.76164         0.29571
C         47.75597        29.04947         0.32031
C         46.54290        29.63678         0.91050
C         47.83769        31.68577         1.51801
C         46.59062        31.00927         1.37394
C         47.86402        33.02608         2.02994
C         46.64240        33.65428         2.42652
C         47.92727        35.81654         3.03665
C         46.64875        35.02015         3.02939
C         47.84927        37.32583         3.01183
C         46.51114        37.96832         2.87586
C         47.66105        40.00855         1.91484
C         46.39661        39.44731         2.54407
C         47.53094        41.19687         1.06367
C         46.14090        41.74801         0.63870
C         47.25455        43.86318        -0.13171
C         46.08021        43.12988         0.16647
C         47.16105        45.18263        -0.77460
C         45.90267        45.79816        -0.96423
C         46.98147        47.79398        -1.92315
C         45.82071        47.10287        -1.49141
C         46.89977        49.16421        -2.41614
C         45.67725        49.85018        -2.44158
C         46.78279        51.93586        -3.20690
C         45.59265        51.25363        -2.74240
C         46.72185        53.27404        -3.66857
C         45.51457        54.08389        -3.40633
C         45.29280        55.39957        -4.07390
C         50.26910        19.10604        -1.57132
C         49.08332        18.42100        -1.65599
C         50.31154        20.50303        -1.26016
C         49.08113        21.16752        -0.99901
C         50.29650        23.32624        -0.93813
C         49.07000        22.60306        -0.80241
C         50.25645        24.79456        -0.97894
C         48.95677        25.53706        -0.81320
C         50.20960        27.65566        -0.25971
C         49.03376        26.93056        -0.31301
C         50.22201        29.04515         0.15013
C         49.05656        29.70524         0.52623
C         50.24676        31.75147         1.21218
C         49.05062        31.04302         1.09849
C         50.26846        33.11061         1.62907
C         49.10076        33.74798         2.04881
C         50.30209        36.01486         2.07537
C         49.17879        35.15802         2.52686
C         50.30584        37.38348         2.19715
C         49.09171        38.11034         2.67617
C         50.12260        40.24320         1.85733
C         48.93758        39.50653         2.16749
C         49.97576        41.67401         1.63499
C         48.60497        42.21066         1.15350
C         49.72674        44.24835         0.14205
C         48.50893        43.44060         0.37376
C         49.64940        45.17719        -1.03984
C         48.32969        45.85703        -1.22536
C         49.42480        47.76486        -2.44704
C         48.23499        47.12615        -1.82962
C         49.35584        49.20867        -2.79683
C         48.11292        49.85938        -2.80878
C         49.17615        51.89060        -3.75048
C         48.01890        51.22625        -3.26224
C         49.04795        53.17497        -4.33039
C         47.84045        53.84909        -4.29900
C         52.81600        20.57184        -1.45726
C         51.54671        21.22731        -1.26273
C         52.75916        23.39075        -1.21586
C         51.54452        22.65656        -1.10639
C         52.79397        24.78816        -0.79562
C         51.49698        25.53745        -0.62925
C         52.80215        27.66468        -0.19634
C         51.52271        27.07415        -0.80755
C         52.79847        28.97880         0.26061
C         51.52600        29.74475         0.24034
C         52.73544        31.66191         1.52047
C         51.51977        31.13244         0.80209
C         52.71099        33.18245         1.45190
C         51.52619        33.84899         1.54295
C         52.73844        36.07947         1.46945
C         51.42674        35.34397         1.32973
C         52.69853        37.51867         1.59808
C         51.49711        38.17294         1.85740
C         52.60118        40.41512         1.75427
C         51.43579        39.63439         1.84773
C         52.54217        41.90489         1.72462
C         51.19520        42.53207         1.46473
C         52.30367        44.09298        -0.23240
C         51.06951        43.80593         0.65233
C         52.22110        45.45585        -0.91993
C         50.91841        45.79760        -1.56618
C         52.00442        47.92881        -2.54749
C         50.77065        47.09366        -2.33453
C         51.85485        49.36514        -2.89306
C         50.55951        49.92573        -3.12337
C         51.65068        52.02398        -3.77130
C         50.46969        51.27103        -3.58642
C         53.96388        21.25671        -1.68176
C         55.23062        23.36927        -1.12519
C         54.00971        22.75471        -1.79924
C         55.31717        24.82902        -1.10894
C         54.02191        25.61557        -0.96319
C         55.27764        27.60688        -0.10997
C         54.04159        26.97841        -0.38925
C         55.28688        28.96256         0.38006
C         54.02694        29.66737         0.59580
C         55.25614        31.68998         1.37429
C         54.00979        30.99116         1.05474
C         55.27242        33.19365         1.45850
C         53.97780        33.93654         1.50512
C         55.14810        36.11922         0.92218
C         53.91849        35.40193         1.30504
C         55.15424        37.57165         1.03295
C         53.98472        38.24915         1.58683
C         55.12266        40.58854         1.24481
C         53.94256        39.79870         1.69156
C         55.11152        41.97772         1.23026
C         53.82806        42.76262         1.57723
C         54.47836        44.92851         0.55386
C         53.55608        43.93227         0.59674
C         54.59059        45.96054        -0.44387
C         53.32967        46.25769        -1.09439
C         54.46076        48.35193        -1.90804
C         53.29815        47.45695        -1.95762
C         54.32075        49.78669        -2.33618
C         52.99568        50.17509        -2.95700
C         52.87773        51.50669        -3.40619
C         57.44445        23.18760        -0.08398
C         56.24959        22.62452        -0.50369
C         57.74982        24.60693        -0.28036
C         56.58780        25.50073        -0.69532
C         57.71423        27.49066         0.24468
C         56.53253        26.89866        -0.20674
C         57.76268        28.90139         0.49725
C         56.51874        29.60049         0.58695
C         57.74887        31.79734         0.77971
C         56.55246        30.97852         1.10865
C         57.72136        33.25769         1.03473
C         56.53053        33.91421         1.12313
C         57.73612        36.12400         0.73436
C         56.46516        35.36178         0.80665
C         57.62732        37.56963         0.36064
C         56.31736        38.31482         0.56918
C         57.65501        40.50499         0.80785
C         56.31479        39.83434         0.73298
C         57.63692        42.00472         0.88890
C         56.33393        42.70952         0.95591
C         57.43319        44.80212         0.12137
C         56.44707        44.10225         0.88995
C         57.15772        46.07874        -0.48930
C         55.81136        46.60172        -0.76296
C         56.88007        48.60395        -1.87813
C         55.70577        47.85314        -1.52056
C         56.73964        49.71588        -2.78973
C         55.52991        50.23523        -3.10605
C         60.10058        24.54507         0.57691
C         58.93546        25.23507         0.36666
C         60.22353        27.40801         0.92640
C         58.89167        26.68125         0.62739
C         60.25196        28.88576         0.74107
C         59.01074        29.57628         0.63902
C         60.31778        31.77038         0.65501
C         59.04212        31.04958         0.53138
C         60.30313        33.25879         0.80090
C         59.00088        34.00384         1.00299
C         60.24336        36.19190         0.68468
C         58.93678        35.47305         0.77048
C         60.22528        37.68376         0.46781
C         58.89770        38.34915         0.22569
C         60.04220        40.51442         0.02787
C         58.88702        39.83376         0.31969
C         60.10492        42.00435         0.04945
C         58.85656        42.77902         0.47624
C         59.76491        44.80060        -0.65641
C         58.68602        44.14507        -0.05558
C         59.60938        46.19494        -0.99164
C         58.29802        46.78281        -0.99894
C         59.33752        48.85090        -1.86680
C         58.17254        48.09786        -1.56783
C         61.34415        25.22463         0.80828
C         61.43263        26.58364         0.85372
C         61.44639        29.60728         0.75658
C         61.47360        31.02953         0.74156
C         61.45116        34.05325         0.30142
C         61.43376        35.39743         0.29299
C         61.37870        38.44770        -0.05984
C         61.26063        39.77452        -0.28783
C         61.04192        42.71248        -0.83514
C         60.92852        44.04850        -1.05958
C         60.73644        46.96540        -1.33504
C         60.60237        48.30190        -1.71663
O         41.87618        43.92475        -1.09656
O         55.64382        35.59795        -0.39724
O         46.28067        22.41487         1.27763
O         51.48650        27.43069        -2.14266
O         56.05626        31.09301         2.47489
O         32.14232        38.12603         3.47368
O         45.21350        54.12106        -1.95040
O         39.38717        46.76005         3.11485
O         39.20844        50.51223         1.81033
O         49.55302        25.36347        -2.14242
O         38.53852        39.74783         5.09607
O         41.70516        30.60851        -0.20562
O         57.85595        41.18154         2.08789
O         27.33720        34.05057         0.34785
O         35.83456        42.05634         4.66503
O         40.82302        22.65346         1.55682
O         35.45080        44.52559         1.86685
O         28.45743        50.63414         4.33421
O         37.95007        54.43682        -4.49184
O         33.52387        46.01667         4.43279
O         34.14374        51.05699         4.17357
O         34.37239        51.88530         0.65411
O         54.66395        25.49157        -2.26360
O         35.44778        49.00466         4.51644
O         37.50141        25.08101        -1.73813
O         59.98680        42.61342         1.37731
O         59.31151        27.01531         1.99755
O         44.54814        43.86689        -1.62045
O         30.51534        31.91554        -1.46461
O         58.19364        31.55683        -0.59565
O         32.53024        25.36724        -2.57388
O         31.90731        40.45559         2.50789
O         40.69627        44.19165         3.23985
O         54.26611        38.96271         2.85497
O         33.48323        42.51599         0.55531
O         59.86515        33.65527         2.15253
O         39.98756        28.16427         2.07923
O         34.72668        35.98005         0.84690
O         45.95488        35.12056         4.33692
O         29.50306        42.84073         2.18781
O         31.02692        45.96620         0.59173
O         44.96704        24.79414         1.95316
O         29.23544        41.96890        -1.53123
O         57.64009        25.15825        -1.65271
O         38.72013        29.79015        -0.87611
O         35.54984        32.06748         2.75067
O         28.81578        23.23862        -3.38056
O         48.90280        35.29356         3.97449
O         58.21391        37.82510        -0.96509
O         48.67337        37.94224         4.06663
O         39.71117        47.29007        -1.32015
O         36.51314        31.83389        -0.67851
O         51.65170        30.94462        -0.63205
O         37.34866        27.53043        -1.48264
O         36.11219        29.16621         1.77785
O         36.88367        35.06523         3.78462
O         37.33299        47.70331         0.43266
O         30.31213        23.96660        -0.18217
O         30.02478        27.75158        -2.53603
O         38.02378        54.03473         0.33007
O         40.98333        37.53169         4.90256
O         50.28324        44.65147        -2.25298
O         42.21116        26.88488         2.29655
O         56.02586        39.23315        -0.56478
O         33.08971        20.63469         0.13843
O         49.99567        46.95325        -3.55281
O         52.15095        25.03185         0.54181
O         43.97249        17.87733        -2.90525
O         34.69367        26.77514         1.13966
O         44.10070        34.83047         1.26803
O         40.73899        32.73026         3.60642
O         27.88251        35.81583        -2.78353
O         52.95607        47.19355        -3.39164
O         37.23513        20.62581         0.83234
O         49.03662        42.35005         2.54047
O         23.96402        30.98047        -0.53149
O         54.73859        33.63991         2.76330
O         30.38578        39.11940        -1.54075
O         31.86943        21.94358        -2.97331
O         33.25643        33.29207         3.06894
O         30.28244        36.03431         2.13904
O         55.50960        44.92026         1.49529
O         46.99772        40.91580        -0.24762
O         50.39213        44.90567         1.30724
O         27.82739        28.29708         0.24011
O         51.77749        42.56441         2.80730
O         44.20920        47.99221        -3.11609
O         31.54783        48.83721         1.86654
O         60.44085        37.13181         1.80585
O         47.48162        28.63324        -1.07377
O         26.99085        42.88032        -2.64425
H         27.93298        42.58401        -2.69191
O         41.73511        34.73646         4.83708
H         41.10783        34.01231         5.06697
O         32.52599        35.73284         3.75294
H         32.10564        36.54862         4.15006
O         52.59604        31.28455         2.91936
H         53.34139        31.69406         3.41265
O         39.00473        18.73535        -2.98881
H         39.78498        18.33646        -3.43201
O         52.28008        43.06023        -1.25538
H         51.62889        43.34715        -1.94449
O         42.89622        55.18852        -2.04934
H         43.76451        55.20376        -1.57734
O         42.00841        40.34318         0.22030
H         41.35745        40.94723        -0.20905
O         39.42795        34.44601         0.58853
H         38.55735        34.58310         0.13150
O         54.07559        23.04681        -3.22688
H         54.22632        24.01986        -3.31983
O         40.08479        42.55805         0.03245
H         40.30371        43.03667        -0.80807
O         51.07029        35.50315        -0.08916
H         51.75133        35.05065        -0.63176
O         39.07804        21.39136        -2.22448
H         39.05594        20.51836        -2.69898
O         27.55545        44.38956         2.61100
H         27.83625        43.46844         2.82507
O         44.14092        38.47855         4.74023
H         44.04695        37.70752         5.33919
O         45.24557        38.78872         0.53780
H         44.50696        38.97010        -0.08189
O         36.53405        17.97338         0.86827
H         36.63099        18.86776         1.27946
O         54.33651        50.56758        -1.07218
H         55.22184        50.44570        -0.66598
O         38.67441        44.87356         4.89025
H         39.53640        45.34576         4.83880
O         36.66409        34.36289         0.13824
H         36.61767        33.50307        -0.39831
O         41.63351        20.23890         1.44077
H         41.13360        20.84215         2.04040
O         46.21377        40.22151         3.74798
H         46.86119        39.91467         4.41828
O         30.62340        33.50311         2.69161
H         31.09115        33.83688         3.49222
O         44.22162        31.50159        -0.36996
H         43.35394        31.26948        -0.78253
O         32.28008        40.71844        -1.05105
H         31.92828        40.10418        -1.74024
O         26.81673        38.77929         0.70162
H         26.69058        37.86107         1.02614
O         54.12626        43.31532         2.86760
H         53.26909        43.49573         3.32032
O         30.66344        30.92003         1.74677
H         30.58079        31.75655         2.27903
O         43.12291        53.72214        -5.38115
H         42.93333        54.07868        -6.27425
O         47.04841        24.72037        -2.04217
H         47.78499        24.87113        -2.68459
H         23.14265        24.31589        -3.27037
H         21.15542        25.68611        -3.75321
H         21.18510        28.12851        -3.39908
H         21.32899        30.03869        -3.34845
H         21.49692        32.43872        -3.31484
H         21.69906        34.34983        -3.45471
H         21.92317        36.76543        -3.50095
H         22.10751        38.64925        -3.53720
H         22.16322        41.05322        -3.19242
H         21.90043        42.71587        -2.30609
H         21.75532        45.04620        -1.62332
H         21.77622        46.92536        -1.37249
H         23.43700        50.23491         0.78461
H         21.64369        49.26707        -0.60483
H         24.53723        23.24608        -2.53502
H         24.45350        50.64528         2.32638
H         26.54407        21.88988        -2.39289
H         26.16163        51.52656         3.89990
H         30.21232        19.47220        -1.48797
H         28.18029        20.77056        -1.84194
H         30.90651        54.35234         3.38202
H         28.88359        53.22432         4.28835
H         32.19502        18.47173        -2.23791
H         32.19125        54.98446         1.93106
H         34.25850        17.26720        -1.76911
H         33.78305        55.77901         0.29775
H         37.83095        15.13603        -1.78817
H         35.75947        16.16793        -1.15625
H         35.54576        55.20972        -4.10710
H         34.24512        55.11336        -1.98188
H         39.44063        14.18810        -1.34468
H         38.06620        56.27242        -6.20533
H         43.72078        14.20299        -1.66627
H         41.57899        12.98005        -1.42187
H         42.35198        56.66696        -6.22281
H         40.13972        57.39537        -7.08336
H         45.42848        15.13750        -1.75414
H         43.93403        56.75007        -4.96674
H         47.48786        16.39116        -1.71153
H         46.13946        56.09944        -4.15070
H         51.20120        18.56787        -1.78644
H         49.11073        17.35946        -1.93386
H         49.91451        53.66492        -4.79210
H         47.77138        54.86020        -4.72225
H         52.85488        19.47353        -1.44970
H         51.59719        53.06421        -4.11631
H         54.88430        20.69966        -1.90901
H         53.76566        52.15145        -3.44277
H         58.17290        22.56252         0.45089
H         56.11386        21.54141        -0.37077
H         57.63490        50.09875        -3.29837
H         55.44957        51.04688        -3.84202
H         60.13082        23.45833         0.41381
H         59.24439        49.88838        -2.21281
H         62.26296        24.62153         0.81446
H         62.41927        27.06740         0.84305
H         62.40390        29.07737         0.84674
H         62.44610        31.53238         0.83933
H         62.34551        33.51531        -0.04575
H         62.32982        35.94315        -0.03554
H         62.34894        37.94971        -0.19401
H         62.14119        40.33633        -0.62727
H         61.85307        42.15378        -1.32206
H         61.68032        44.54388        -1.68943
H         61.73913        46.52269        -1.27358
H         61.49474        48.90329        -1.93649
