         429
 CSIRO Nanostructure Databank - Neutral Graphene Oxide Data Set
C          1.26418         1.95661        -0.75607
C          1.22411         3.31654        -0.88330
C          2.49507         1.24048        -0.82367
C          2.47249         4.04872        -1.31309
C          1.30680         6.26386        -1.38776
C          1.26572         7.69972        -1.29115
C          2.45057         5.54979        -1.13349
C          2.37602         8.43681        -1.02968
C          1.07302        10.68678        -0.93603
C          1.07450        12.00009        -0.59668
C          2.38215         9.95563        -1.11196
C          2.30108        12.74197        -0.34451
C          1.09498        14.94982        -0.17416
C          1.11764        16.33358        -0.08158
C          2.29302        14.19569        -0.28412
C          2.33453        17.05186        -0.15485
C          2.38082        18.49569        -0.03395
C          3.71961         1.93026        -0.77298
C          3.70522         3.37955        -0.75489
C          4.95868         1.25840        -0.64873
C          4.81645         4.09599        -0.35010
C          3.65097         6.24381        -0.72826
C          3.73090         7.74739        -0.93258
C          4.75222         5.54785        -0.25869
C          4.60683         8.40327         0.11814
C          3.39710        10.56686        -0.18012
C          3.47283        11.98858        -0.08660
C          4.31956         9.71011         0.46381
C          4.79446        12.69395        -0.06246
C          3.51889        14.91998        -0.33875
C          3.53809        16.32554        -0.30717
C          4.79180        14.16035        -0.39525
C          4.80225        17.09160        -0.64051
C          3.55531        19.19519        -0.01431
C          4.83042        18.54136        -0.19478
C          6.15347         1.96931        -0.42843
C          6.09784         3.41348        -0.19006
C          7.37906         1.28982        -0.30680
C          7.25482         4.10667         0.09335
C          5.86288         6.23220         0.44583
C          5.80469         7.72216         0.63689
C          7.19157         5.49822         0.58219
C          7.19083         8.48364         0.82953
C          6.17876        10.78979         0.86139
C          6.09926        12.10399         0.37174
C          7.29779         9.96028         0.64458
C          7.32554        12.76338         0.12713
C          6.04859        14.90884        -0.08663
C          6.04429        16.38661        -0.16536
C          7.34746        14.19183        -0.14103
C          7.31696        17.10431        -0.33091
C          6.03672        19.18920        -0.09500
C          7.31681        18.50176        -0.27855
C          8.59800         1.96885        -0.03468
C          8.60382         3.48054        -0.15368
C          9.77566         1.27739         0.14027
C          9.74183         4.19850         0.53396
C          8.44441         6.29527         0.62560
C          8.41758         7.67217         0.64633
C          9.71848         5.56908         0.64651
C          9.69484         8.36564         0.33891
C          8.49122        10.61118         0.26602
C          8.53953        12.02239         0.15731
C          9.73759         9.84056         0.10044
C          9.80942        12.70102        -0.03898
C          8.51490        14.87735        -0.28425
C          8.53417        16.32517        -0.72995
C          9.81844        14.20950         0.06252
C          9.81556        17.06274        -0.44477
C          8.55376        19.19496        -0.34713
C          9.79995        18.49417        -0.40511
C         10.99176         1.93970         0.63950
C         10.96483         3.44423         0.88664
C         12.30443         1.31849         0.46748
C         12.25450         4.15547         0.98336
C         10.96273         6.31310         0.88563
C         10.94431         7.68494         0.73177
C         12.23266         5.60623         1.04947
C         12.13282         8.51653         0.97977
C         11.01635        10.58007         0.20574
C         10.99951        12.00067        -0.02698
C         12.19402         9.93443         0.55433
C         12.34055        12.59681        -0.40641
C         11.01949        14.88001        -0.56868
C         11.03251        16.36965        -0.47346
C         12.30885        14.10788        -0.58781
C         12.25302        17.06494        -0.55778
C         11.03840        19.18088        -0.41149
C         12.26947        18.49462        -0.50801
C         13.45759         2.00786         0.72226
C         13.44127         3.43023         0.99399
C         14.75998         1.24212         0.77892
C         14.73756         4.12314         1.18633
C         13.42487         6.31497         1.12811
C         13.44239         7.77815         1.20523
C         14.72698         5.63793         1.24255
C         14.70312         8.51752         1.01146
C         13.44851        10.64820         0.70250
C         13.49135        12.06936         0.43051
C         14.64363         9.93826         0.95742
C         14.62360        12.85026         0.63344
C         13.55699        14.86286        -0.37186
C         13.51286        16.31395        -0.71412
C         14.64854        14.25957         0.21748
C         14.79293        17.10970        -0.62917
C         13.51278        19.21703        -0.47183
C         14.75736        18.58464        -0.44665
C         15.99463         2.07521         0.52762
C         15.98902         3.47038         0.74965
C         17.17866         1.42979         0.18907
C         17.17098         4.23962         0.55129
C         15.96953         6.38976         0.93659
C         15.93213         7.82678         0.95634
C         17.16004         5.69871         0.68640
C         17.17254         8.56859         0.91137
C         15.87847        10.68454         1.25668
C         15.82044        12.21919         1.25087
C         17.17343         9.97930         1.09092
C         17.14681        12.93735         1.28765
C         15.84608        15.10084         0.48606
C         15.95794        16.41091        -0.09799
C         17.18252        14.40153         0.98481
C         17.22381        17.13658        -0.14053
C         15.97522        19.27942        -0.22059
C         17.22433        18.61880        -0.11178
C         18.38332         2.16213         0.02387
C         18.35462         3.57851         0.17160
C         19.60131         1.48347        -0.24555
C         19.56864         4.36247        -0.24264
C         18.40208         6.43064         0.57295
C         18.39919         7.86118         0.75930
C         19.61634         5.75985         0.32580
C         19.62923         8.57606         0.77389
C         18.40145        10.68052         1.06296
C         18.44245        12.16326         1.20334
C         19.61659         9.98204         0.92777
C         19.65810        12.89313         0.78593
C         18.44748        15.02401         0.68261
C         18.49095        16.40395         0.19691
C         19.66739        14.28336         0.65450
C         19.72802        17.17078         0.36962
C         18.44654        19.27823         0.06730
C         19.70010        18.59048         0.25115
C         20.84585         2.16760        -0.25681
C         20.85799         3.59312        -0.12360
C         22.06662         1.46202        -0.36263
C         22.07802         4.28969        -0.07389
C         20.86719         6.43499         0.39789
C         20.88460         7.86006         0.65201
C         22.08508         5.71694         0.17103
C         22.09780         8.56440         0.68228
C         20.90205        10.75729         1.11323
C         20.86645        12.10000         0.38477
C         22.14953         9.98640         0.75038
C         22.16040        12.86951         0.54056
C         20.92243        15.00907         0.50939
C         20.93647        16.44271         0.48730
C         22.15227        14.29695         0.51762
C         22.17409        17.15546         0.49808
C         20.92923        19.28422         0.32702
C         22.16519        18.59374         0.43558
C         23.30783         2.14219        -0.35761
C         23.30958         3.56932        -0.20648
C         24.54174         1.45443        -0.48899
C         24.55259         4.26989        -0.24900
C         23.34278         6.38727         0.20717
C         23.38629         7.79651         0.76345
C         24.52033         5.69889        -0.07350
C         24.56169         8.61361         0.32426
C         23.34193        10.70475         0.58602
C         23.36307        12.15720         0.54194
C         24.58196         9.98699         0.37584
C         24.61223        12.86659         0.43767
C         23.39333        15.01164         0.52866
C         23.40220        16.44156         0.52698
C         24.62537        14.29454         0.48534
C         24.64147        17.15000         0.50739
C         23.40238        19.28177         0.44067
C         24.63756        18.58946         0.46894
C         25.77975         2.14191        -0.51425
C         25.77151         3.57080        -0.41080
C         27.01862         1.44072        -0.62445
C         27.06767         4.30446        -0.67617
C         25.79754         6.43339        -0.20965
C         25.80173         7.89223        -0.00094
C         27.08396         5.70559        -0.11991
C         27.05365         8.58278         0.38805
C         25.83613        10.72256         0.17662
C         25.83603        12.17136         0.22476
C         27.03134        10.03171         0.12906
C         27.05557        12.88969         0.17969
C         25.86442        15.00696         0.47385
C         25.87143        16.44010         0.49522
C         27.09631        14.29656         0.38294
C         27.11111        17.14449         0.44976
C         25.87519        19.27384         0.42385
C         27.10556        18.57921         0.40621
C         28.28108         2.09369        -0.50222
C         28.31121         3.51278        -0.35917
C         29.51500         1.39205        -0.46951
C         29.52003         4.16203        -0.05442
C         28.24620         6.35525         0.14300
C         28.32464         7.81168         0.46028
C         29.50828         5.60725         0.26802
C         29.59530         8.53365         0.16495
C         28.29947        10.66263        -0.20616
C         28.30607        12.22262        -0.18009
C         29.55708         9.94652        -0.06288
C         29.59042        12.88138         0.04200
C         28.35690        14.98721         0.41424
C         28.35661        16.43704         0.44836
C         29.57793        14.26177         0.35587
C         29.55942        17.16277         0.38668
C         28.34433        19.27474         0.31094
C         29.55800        18.58429         0.28399
C         30.74538         2.06368        -0.28108
C         30.74438         3.46716        -0.02609
C         31.99811         1.36355        -0.30541
C         32.02168         4.18464         0.37548
C         30.80828         6.37586         0.20718
C         30.76343         7.82145        -0.03492
C         32.04349         5.64019        -0.04712
C         31.95562         8.45846        -0.70199
C         30.77109        10.66988        -0.29231
C         30.78540        12.12838        -0.21209
C         31.94780         9.96332        -0.55458
C         32.01526        12.80197        -0.35160
C         30.87309        14.97357         0.47016
C         30.90735        16.49986         0.57573
C         32.08905        14.23760        -0.01059
C         31.91502        17.13863        -0.42006
C         30.83118        19.28742         0.16596
C         31.99315        18.62375        -0.12138
C         33.23328         2.02644        -0.24355
C         33.27463         3.48587        -0.09250
C         34.45039         1.30814        -0.19865
C         34.43372         4.18609        -0.24059
C         33.26284         6.44700         0.35680
C         33.28914         7.81631        -0.32169
C         34.59280         5.61640         0.28386
C         34.45640         8.47659        -0.56791
C         33.15428        10.68822        -0.92893
C         33.21625        12.13555        -0.69061
C         34.47768         9.90772        -0.98542
C         34.47339        12.80598        -0.67515
C         33.22564        14.96765        -0.69015
C         33.26271        16.44184        -0.38512
C         34.52518        14.22570        -0.51625
C         34.44379        17.11662        -0.31581
C         33.27363        19.27971        -0.23526
C         34.44706        18.57918        -0.32663
C         35.69901         1.98298        -0.14187
C         35.68957         3.43097        -0.51437
C         36.89048         1.33674         0.13993
C         36.97270         4.17008        -0.70496
C         35.73803         6.36681        -0.36776
C         35.74364         7.78328        -0.50398
C         36.89045         5.66809        -0.73222
C         36.95169         8.48009        -0.70774
C         35.71036        10.67144        -0.80895
C         35.71025        12.06535        -0.72613
C         36.98877         9.93496        -1.08870
C         36.96703        12.77245        -0.58301
C         35.73159        14.90039        -0.40863
C         35.75669        16.38309        -0.07272
C         36.96857        14.17533        -0.45053
C         36.95173        17.06445        -0.75120
C         35.72413        19.32064        -0.66021
C         36.99088        18.53918        -0.42210
C         38.12004         2.09870         0.41761
C         38.21042         3.53940        -0.08788
C         39.39308         1.43289         0.75341
C         39.57376         4.12249        -0.14923
C         38.00617         6.40896        -1.15156
C         38.17162         7.77682        -0.87742
C         39.84025         5.34555        -0.78428
C         39.47875         8.43547        -0.79075
C         38.24818        10.63607        -0.65817
C         38.20095        12.01062        -0.47831
C         39.48673         9.86563        -0.62687
C         39.41851        12.74564        -0.07667
C         38.22173        14.92284        -0.35423
C         38.22889        16.32451        -0.41109
C         39.44961        14.21544        -0.18802
C         39.43964        17.03925        -0.18709
C         38.15338        19.17148        -0.14203
C         39.42111        18.46647        -0.06182
C         40.51821         2.15882         0.99039
C         40.61141         3.56408         0.63551
C         41.74437         4.37122         0.90562
C         40.81399         6.25630        -0.35016
C         40.70675         7.70685        -0.64446
C         41.79208         5.71132         0.52165
C         41.91158         8.43888        -0.58647
C         40.72187        10.54617        -0.45866
C         40.74519        11.98592        -0.10591
C         41.92507         9.82454        -0.53137
C         41.95318        12.80189        -0.29423
C         40.67467        14.90011        -0.10844
C         40.67635        16.33794        -0.04665
C         41.91287        14.15492        -0.20477
C         41.86271        17.08692         0.17525
C         40.60745        19.16091         0.16485
C         41.82655        18.46741         0.27259
O          4.96165        13.20986        -1.47772
O         11.55112        14.40595        -1.83055
O         15.64217        11.47604         2.48229
O         39.00840         5.72613        -1.84231
O         27.61767         8.19985         1.69396
O         36.33191         3.56489        -1.86468
O         31.85749        14.41629         1.42811
O         25.80176         7.36108        -1.39131
O         14.85141         4.82199         2.47164
O          5.05258        10.29162         1.51431
O         14.27631        16.64033        -1.93274
O         12.66481         8.31472         2.33568
O         18.04396        16.52568        -1.24422
O         40.03961        12.24887         1.15681
O          6.25118         5.58929         1.70392
O         37.88233         3.25076         1.31453
O          5.91319        15.71347         1.14816
O          6.32116         8.10660         1.92982
O         10.76328         2.49857         1.99762
O         33.73590        10.22105        -2.22530
O         17.91160        12.64764         2.49406
O         16.30343        15.12922         1.89469
O          9.71587         8.89901        -1.05304
O         30.15734         5.96198         1.53897
O         28.23719        11.47285        -1.42877
O         35.08018         5.40560         1.63702
H         34.62811         6.07660         2.20566
O         23.61012         7.57340         2.21600
H         23.66284         8.45505         2.64425
O         37.04321         9.92858        -2.57136
H         36.16096         9.64820        -2.89972
O         36.00952        16.48915         1.35397
H         35.28987        16.02546         1.83069
O         14.86990         0.64755         2.08951
H         14.80598         1.36492         2.75405
O          8.87034         3.72177        -1.59211
H          8.15372         3.28284        -2.09945
O         19.39897         4.57215        -1.70777
H         20.19762         5.04533        -2.02643
O         31.80623         8.18514        -2.14390
H         32.45233         8.77821        -2.60081
O         32.91468        14.85404        -2.11875
H         33.72458        15.08395        -2.62109
O         36.72769        16.95168        -2.19555
H         37.57136        17.17523        -2.64319
O         27.10472         4.49964        -2.14044
H         26.47727         5.22368        -2.35905
O          2.55110         3.84648        -2.77509
H          2.58654         2.87788        -2.92847
O         20.72371        11.79328        -1.03992
H         20.77778        12.63554        -1.53910
O          4.88845        17.10650        -2.09933
H          4.08758        17.55606        -2.44169
O         31.31828        16.96374        -1.72778
H         31.97580        17.22133        -2.40610
O         35.67548        19.61443        -2.07945
H         35.80544        18.75471        -2.54292
O         33.03561         6.79164         1.76744
H         32.60553         5.99900         2.17473
O         21.00689        11.06768         2.53213
H         20.75798        10.27129         3.04555
O          4.39126         7.92872        -2.22957
H          4.01092         8.74633        -2.63734
O          2.84737        10.24013        -2.49105
H          3.04179        11.20242        -2.54031
O         12.62789        12.04330        -1.73008
H         12.10777        12.57798        -2.37400
O         32.05426         4.14518         1.85434
H         31.19722         4.54761         2.14784
O         31.31746        16.85059         1.91507
H         31.76575        16.05934         2.29644
O         10.01459        14.49567         1.49682
H          9.21793        14.18747         1.97988
O          8.45475        16.23961        -2.20876
H          8.46855        17.15589        -2.55963
H          0.33711         1.39290        -0.57431
H          0.26446         3.84975        -0.82251
H          2.48837         0.14220        -0.78203
H          0.38227         5.74437        -1.67486
H          0.29573         8.19136        -1.45641
H          0.12467        10.19089        -1.18816
H          0.11564        12.53691        -0.56130
H          0.12548        14.43642        -0.12249
H          0.17457        16.88675         0.03682
H          1.42844        19.02832         0.10589
H          4.98836         0.16041        -0.71351
H          3.54304        20.28167         0.16085
H          7.38569         0.19004        -0.35188
H          6.05758        20.26661         0.13287
H          9.78506         0.18054         0.03898
H          8.56322        20.29380        -0.30348
H         12.35216         0.26333         0.15749
H         11.04126        20.28001        -0.36227
H         14.72872         0.39188         0.05041
H         13.46937        20.31252        -0.37486
H         17.18960         0.33709         0.06597
H         15.94255        20.37481        -0.11749
H         19.58915         0.38933        -0.35665
H         18.46176        20.37867         0.05363
H         22.04858         0.36683        -0.46316
H         20.93648        20.38181         0.25296
H         24.53364         0.35829        -0.58357
H         23.40614        20.38112         0.39351
H         26.99547         0.34505        -0.72218
H         25.87965        20.37349         0.38314
H         29.51646         0.30075        -0.60939
H         28.33715        20.37309         0.24750
H         31.98583         0.26788        -0.41075
H         30.83914        20.37860         0.31359
H         34.42443         0.21085        -0.11178
H         33.29865        20.38082        -0.24498
H         36.90419         0.24439         0.27702
H         35.75838        20.30240        -0.12489
H         39.38993         0.34297         0.90284
H         38.15872        20.25945         0.03091
H         41.42741         1.65899         1.35671
H         42.55691         3.95887         1.52077
H         42.60914         6.34454         0.89544
H         42.86668         7.89740        -0.54540
H         42.88932        10.34355        -0.45035
H         42.90955        12.30739        -0.51497
H         42.85180        14.71448        -0.31743
H         42.82393        16.57038         0.29774
H         40.58681        20.25512         0.26831
H         42.75456        19.02691         0.45482
