         196
 CSIRO Nanostructure Databank - Neutral Graphene Oxide Data Set
C        -11.16791         0.73610         0.03139
C         -9.94288         1.48527        -0.10621
C         -8.70946         0.75807        -0.14206
C         -7.47808         1.47065        -0.26802
C         -6.24234         0.74872        -0.30392
C         -4.96602         1.47299        -0.65114
C         -3.69353         0.76202        -0.27124
C         -2.49520         1.47207        -0.19908
C         -1.25296         0.76710         0.01122
C         -0.02598         1.46202         0.10900
C          1.18033         0.77263         0.40398
C          2.38072         1.52025         0.59544
C          3.62056         0.80620         0.96425
C          4.92094         1.46557         0.73097
C          6.11943         0.75659         0.58015
C          7.35686         1.48096         0.38322
C          8.56514         0.76511         0.20934
C          9.79696         1.48272        -0.01648
C         11.01732         0.73426        -0.18083
C         -9.93600         2.88748        -0.18137
C         -8.72086         3.61061        -0.27371
C         -7.51089         2.88696        -0.33581
C         -6.24542         3.64072        -0.21261
C         -4.96001         2.90778        -0.19893
C         -3.69113         3.65413        -0.32913
C         -2.47847         2.93928        -0.27174
C         -1.25809         3.65036        -0.20788
C          0.04760         2.90726        -0.32759
C          1.22976         3.66128         0.22724
C          2.38049         2.94307         0.58225
C          3.62267         3.66734         0.98011
C          4.93567         2.92388         0.87448
C          6.16950         3.65642         0.53708
C          7.35412         2.91574         0.32761
C          8.58162         3.61346         0.03600
C          9.78680         2.87140        -0.10736
C         -8.68488         5.06504        -0.22963
C         -7.51629         5.79196        -0.33279
C         -6.24098         5.06579        -0.69278
C         -4.96110         5.79274        -0.36900
C         -3.72464         5.07389        -0.31088
C         -2.49323         5.78747        -0.21962
C         -1.26052         5.06679        -0.17098
C         -0.02870         5.79818        -0.03771
C          1.20877         5.09417         0.20362
C          2.41042         5.82180         0.36320
C          3.64825         5.19767         0.95212
C          4.92316         5.80747         0.39458
C          6.13615         5.06431         0.32677
C          7.35925         5.74121        -0.02937
C          8.55974         5.01040        -0.12242
C         -7.45460         7.22391        -0.29283
C         -6.24690         7.90818        -0.36378
C         -4.97560         7.19150        -0.35195
C         -3.74510         7.91423        -0.31202
C         -2.50825         7.21565        -0.22596
C         -1.27797         7.93531        -0.14833
C         -0.06688         7.21337         0.00841
C          1.17270         7.94878         0.25221
C          2.44459         7.22793         0.22220
C          3.67013         7.92710         0.09633
C          4.90925         7.18313         0.09111
C          6.13640         7.85134        -0.25522
C          7.32973         7.13793        -0.28976
C         -6.20130         9.34995        -0.40413
C         -5.02015        10.03109        -0.45521
C         -3.74615         9.34773        -0.41161
C         -2.53992        10.03607        -0.49211
C         -1.27898         9.37100        -0.34867
C         -0.07889        10.07592        -0.49331
C          1.18683         9.49627        -0.06722
C          2.48460        10.03725        -0.44693
C          3.66533         9.32309        -0.27662
C          4.93121         9.95229        -0.59654
C          6.10103         9.25998        -0.57484
C        -11.16302        -0.62573         0.13497
C         -9.93393        -1.38060         0.10313
C         -8.69763        -0.66042        -0.04345
C         -7.46574        -1.36989        -0.08538
C         -6.22861        -0.64552        -0.21441
C         -4.97241        -1.36785        -0.22650
C         -3.72860        -0.66441        -0.18408
C         -2.50152        -1.37291        -0.04637
C         -1.26779        -0.66360         0.07918
C         -0.04359        -1.38331         0.20581
C          1.18386        -0.68001         0.43876
C          2.38003        -1.41414         0.60760
C          3.60481        -0.70451         1.01405
C          4.92538        -1.41876         0.97002
C          6.15272        -0.67912         0.64269
C          7.35385        -1.38746         0.41980
C          8.57243        -0.66395         0.21554
C          9.79631        -1.37624         0.00585
C         11.01725        -0.62936        -0.16819
C         -9.91493        -2.77078         0.22050
C         -8.69543        -3.50372         0.15659
C         -7.46195        -2.79090        -0.02209
C         -6.23664        -3.51508        -0.15781
C         -4.98055        -2.78642        -0.24511
C         -3.74277        -3.47812        -0.25866
C         -2.51357        -2.79824        -0.09216
C         -1.27329        -3.52280        -0.05441
C         -0.04233        -2.80795         0.09549
C          1.19271        -3.51850         0.10202
C          2.41574        -2.82811         0.37292
C          3.63438        -3.56673         0.39726
C          4.91278        -2.91175         0.72120
C          6.16652        -3.56588         0.31530
C          7.36252        -2.83037         0.29792
C          8.60144        -3.52400         0.05036
C          9.80068        -2.77679        -0.05046
C         -8.67590        -4.91444         0.27092
C         -7.47533        -5.63828         0.15030
C         -6.26513        -4.92115        -0.10833
C         -5.04869        -5.69267        -0.38204
C         -3.72506        -4.92738        -0.47511
C         -2.49353        -5.67366        -0.21142
C         -1.27036        -4.94042        -0.10921
C         -0.03050        -5.65921        -0.18608
C          1.21463        -4.92660        -0.14352
C          2.44204        -5.61153        -0.21014
C          3.66519        -4.93885         0.06092
C          4.91535        -5.66237        -0.02654
C          6.14913        -4.96501         0.05835
C          7.39676        -5.66688        -0.09941
C          8.59519        -4.93199        -0.09333
C         -7.43658        -7.07393         0.23508
C         -6.24659        -7.79791         0.16217
C         -4.99975        -7.11938        -0.05377
C         -3.77042        -7.79630        -0.01072
C         -2.53752        -7.06525        -0.05764
C         -1.27108        -7.77568         0.16660
C         -0.04128        -7.05726        -0.17782
C          1.14831        -7.81310        -0.53034
C          2.47410        -7.02827        -0.57963
C          3.71591        -7.78554        -0.42480
C          4.91941        -7.07931        -0.23374
C          6.17494        -7.79087        -0.29411
C          7.37473        -7.08682        -0.24655
C         -6.20513        -9.24271         0.24149
C         -5.03076        -9.92635         0.13845
C         -3.74948        -9.25160         0.05697
C         -2.56834        -9.96615        -0.02496
C         -1.25836        -9.31828         0.12526
C          0.00374        -9.98669        -0.22490
C          1.19046        -9.28819        -0.40163
C          2.46378        -9.91961        -0.55619
C          3.67951        -9.21129        -0.54130
C          4.94875        -9.90098        -0.55755
C          6.13081        -9.22429        -0.45572
O          3.60822         5.64476         2.34713
H          4.05184         4.93866         2.87596
O          4.27666         3.22038         2.20656
O         -4.94403         1.56148        -2.12027
H         -4.98631         0.64763        -2.47355
O         -6.25724         4.94808        -2.15912
H         -6.30564         5.85574        -2.52696
O         -4.43464        -5.36287        -1.68203
O          1.73462        -7.35186        -1.80129
O          3.48473         0.08162         2.24666
O          0.31209         2.83282        -1.79199
H         -0.46655         2.39735        -2.20167
O         -1.17976        -8.55704         1.40383
O          1.11581         8.95409         1.29464
O         -5.60761         3.28667         1.06727
O          5.03014        -2.36245         2.08827
H         11.95546        -1.18655        -0.30626
H         11.95509         1.28932        -0.32989
H         10.72374         3.41076        -0.31175
H          9.49436         5.54029        -0.35951
H          8.26673         7.65252        -0.55015
H          7.04852         9.76210        -0.82014
H          4.92484        11.01999        -0.86120
H          2.52037        11.02872        -0.92383
H         -0.09330        11.10357        -0.88640
H         -2.54701        11.12926        -0.61774
H         -5.01975        11.12980        -0.51103
H         -7.15446         9.89940        -0.41554
H         -8.39168         7.79431        -0.19671
H         -9.63818         5.59611        -0.07912
H        -10.88912         3.43533        -0.13026
H        -12.11920         1.28805         0.05804
H        -12.11014        -1.17453         0.24439
H        -10.86002        -3.31885         0.35219
H         -9.61974        -5.45340         0.44174
H         -8.38452        -7.61317         0.38200
H         -7.15371        -9.78793         0.35550
H         -5.03196       -11.02605         0.17413
H         -2.60349       -11.06071        -0.14008
H          0.00497       -11.08439        -0.31091
H          2.49934       -11.01969        -0.57356
H          4.94840       -10.99600        -0.66285
H          7.08352        -9.77340        -0.49008
H          8.32863        -7.62872        -0.33290
H          9.55154        -5.45864        -0.23078
H         10.74975        -3.30655        -0.22190
