         261
 CSIRO Nanostructure Databank - Neutral Graphene Oxide Data Set
C        -11.20214         0.81679         0.23077
C        -10.09353         1.60646        -0.34710
C         -8.83921         0.87481        -0.74173
C         -7.53063         1.48746        -0.32412
C         -6.27639         0.72065        -0.62963
C         -4.97918         1.46994        -0.61115
C         -3.79129         0.62996        -0.21640
C         -2.51551         1.34080         0.08688
C         -1.17878         0.67490        -0.06396
C          0.03530         1.49192        -0.39121
C          1.32759         0.76488        -0.69683
C          2.51190         1.55883        -1.19108
C          3.82721         0.83361        -1.07737
C          5.00025         1.63436        -0.61201
C          6.24079         0.89720        -0.12159
C          7.55547         1.57478        -0.38973
C          8.80696         0.90605         0.09200
C         10.13133         1.61472        -0.13934
C         11.33014         0.72956        -0.20588
C         -9.99074         3.04739        -0.04657
C         -8.78694         3.72533        -0.08599
C         -7.46938         2.97663         0.05871
C         -6.28847         3.77426        -0.54008
C         -4.97591         2.96286        -0.46368
C         -3.76580         3.61846         0.15542
C         -2.49251         2.84148         0.29191
C         -1.17680         3.57600         0.12460
C         -0.17705         2.93537        -0.85244
C          1.11341         3.77904        -1.03690
C          2.44722         3.08740        -1.27004
C          3.74154         3.87861        -1.32048
C          4.99403         3.11560        -0.86543
C          6.33015         3.80718        -0.93462
C          7.60154         3.00471        -0.80819
C          8.90036         3.83283        -0.82770
C         10.12534         2.95921        -0.66365
C         -8.73420         5.14490        -0.06385
C         -7.52463         5.84229         0.16422
C         -6.30094         4.97988         0.43138
C         -5.02244         5.80213         0.44001
C         -3.72390         5.11955         0.21137
C         -2.46557         5.71472         0.78892
C         -1.18623         5.04870         0.35661
C         -0.09976         5.93095        -0.16494
C          1.13289         5.25214        -0.69739
C          2.43072         6.02804        -0.58015
C          3.73380         5.37114        -1.00145
C          5.05449         6.02448        -0.61673
C          6.34625         5.26263        -0.62143
C          7.53818         5.88289         0.02110
C          8.79567         5.01576         0.18056
C         -7.45514         7.22851         0.19968
C         -6.30910         7.94880         0.78454
C         -5.04624         7.15837         1.08492
C         -3.74868         7.89909         1.31995
C         -2.44553         7.12605         1.29166
C         -1.11280         7.89179         1.29895
C         -0.04892         7.31469         0.37261
C          1.24274         7.91090         0.89455
C          2.54319         7.12176         0.52297
C          3.69368         8.05121         0.14047
C          5.03488         7.37695        -0.01357
C          6.16268         7.85732         0.87208
C          7.46179         7.10273         0.60932
C         -6.16311         9.40564         0.57549
C         -4.98252        10.05174         0.66859
C         -3.72815         9.39630         1.10697
C         -2.42929        10.03764         0.84643
C         -1.22024         9.38046         0.98012
C          0.01206        10.07842         0.83696
C          1.27304         9.43251         0.79274
C          2.46343        10.14624         0.84720
C          3.72862         9.50569         0.45698
C          5.07765        10.11011         0.65630
C          6.20107         9.37755         0.79159
C        -11.10572        -0.51075         0.45245
C        -10.02004        -1.33358        -0.12897
C         -8.87454        -0.63418        -0.80556
C         -7.60936        -1.39774        -1.15198
C         -6.29660        -0.67662        -1.22696
C         -4.98364        -1.44753        -1.27532
C         -3.73209        -0.77340        -0.77581
C         -2.49027        -1.56376        -0.43791
C         -1.19193        -0.83370        -0.21609
C          0.03700        -1.51128        -0.77222
C          1.34234        -0.74026        -0.72878
C          2.60620        -1.46393        -1.10175
C          3.88927        -0.69223        -1.00428
C          5.20978        -1.38869        -0.65625
C          6.22860        -0.58160         0.16865
C          7.53850        -1.32485         0.46227
C          8.82464        -0.60666         0.21096
C          9.94280        -1.34304        -0.53568
C         11.25852        -0.61003        -0.31853
C         -9.79773        -2.72784         0.30993
C         -8.72047        -3.44976        -0.07381
C         -7.62933        -2.89532        -0.93027
C         -6.34995        -3.67267        -1.08711
C         -5.05499        -2.98178        -1.60340
C         -3.81990        -3.75038        -1.08919
C         -2.54594        -3.05493        -0.71860
C         -1.23566        -3.82361        -0.72079
C          0.00171        -3.00011        -1.04229
C          1.31599        -3.74051        -1.13228
C          2.58152        -2.96027        -0.96204
C          3.72751        -3.55994        -0.22876
C          5.01031        -2.77148        -0.05270
C          6.24273        -3.50583         0.32287
C          7.58526        -2.84172         0.46594
C          8.82967        -3.53699        -0.01249
C          9.97144        -2.83452        -0.23648
C         -8.74879        -4.94675         0.12364
C         -7.40890        -5.63664         0.20630
C         -6.12310        -4.92759        -0.21615
C         -5.08604        -5.88874        -0.85842
C         -3.81595        -5.25587        -1.34967
C         -2.47168        -6.03549        -1.51637
C         -1.23790        -5.31360        -0.96066
C          0.07440        -6.05014        -1.15435
C          1.32538        -5.25155        -0.99174
C          2.42427        -5.81069        -0.13334
C          3.69170        -5.01564         0.07785
C          4.98788        -5.76227         0.20933
C          6.32683        -5.01526         0.06065
C          7.47244        -5.60944         0.87565
C          8.60783        -4.61693         1.04860
C         -7.33757        -6.86785         0.75598
C         -6.15564        -7.74642         0.57518
C         -5.08119        -7.31061        -0.36835
C         -3.79932        -8.10781        -0.46067
C         -2.53804        -7.52543        -1.03421
C         -1.18649        -8.38025        -0.97074
C          0.12288        -7.54449        -0.81641
C          1.30582        -8.11553        -0.06597
C          2.35089        -7.17327         0.46433
C          3.58087        -7.74344         1.13496
C          4.91727        -7.09679         0.86142
C          6.10584        -7.61849         1.66324
C          7.40199        -6.84260         1.42098
C         -5.81556        -8.77657         1.58060
C         -4.70462        -9.51673         1.47060
C         -3.78122        -9.46404         0.27214
C         -2.38500        -9.88980         0.67737
C         -1.23652        -9.46423         0.13182
C          0.03820       -10.29797         0.28920
C          1.28322        -9.47725         0.53880
C          2.38548       -10.00229         1.12705
C          3.62121        -9.21318         1.40400
C          4.97458        -9.84090         1.42740
C          6.12081        -9.13097         1.49248
O         -6.00594         7.37718         2.12709
O         -0.22892        -2.04544        -2.11394
O          3.36412        -1.16826        -2.29538
O          2.99748         6.25743        -1.88382
O         -7.14886         3.03493         1.49430
O          2.19363        -3.47256        -2.27170
O         -3.46349        -8.25767        -1.88131
O          4.67872         2.59996         0.46601
O         -7.08196        -0.90960        -2.42717
O         -9.64739         1.46918        -1.77771
O         -6.16609        -8.17059        -0.84584
O          1.80105        -6.05476         1.20108
O          6.75170        -5.07477        -1.27246
O          1.64647        -0.03236         0.50159
O          5.40981        -2.91831         1.34838
O          8.40181        -0.89946         1.56138
O         -0.44463         7.10724        -0.99034
O         -3.49046        -3.55470         0.30037
O          9.42443         1.55329         1.20831
O         -4.04138        -0.79459        -2.19367
O         -7.37846        -3.74499        -2.10936
O          1.00865         7.69525         2.35111
O         -0.61834         4.11743         1.34235
O          5.89529         0.35982         1.19918
O          5.34879         7.23759        -1.41162
O         -4.84476        -5.68884        -2.27654
O          5.04931        -6.98829        -0.58666
O          3.37872        -8.21763         2.49550
O          3.07557         3.52065        -2.52869
O         -3.33663         0.72226         1.14063
O         -3.29536         3.16484         1.45655
O         -2.50519         6.00137         2.21152
O          3.23966         1.14518        -2.37135
O          1.22928        -8.17081        -1.52068
O         -0.32433         1.22930         0.98838
O          0.93888        -5.79559        -2.28863
O         -9.97109        -1.15368        -1.59708
O         -6.44370         4.32523         1.73154
O         -1.11156        -9.13751        -2.11114
O         -4.69727         2.33235        -1.75911
O          7.99113        -3.47866         1.81644
O         -6.89124         0.66896         0.70283
O          3.35791        -4.03774         1.10762
O          3.47976         8.97831        -0.94086
O          0.88155         4.78580        -2.05908
O         -1.21441        -4.76768         0.39144
O          6.49970         4.76189        -2.00875
O         -1.90074        -1.43350         0.89354
O         -3.81402         8.78957         2.45740
O          7.63735         1.93745        -1.81557
O         -5.68053        -4.51295         1.04278
O         -4.35249         5.84795        -0.87546
O         -0.46537         7.74581         2.60584
O          9.04530         4.42035        -2.13004
H          8.69290         3.79081        -2.79575
O         -5.02971        -3.08868        -3.02004
H         -5.95183        -2.99211        -3.35034
O          5.78440         7.52112         2.23726
H          6.43078         7.92961         2.84994
O         -6.53723         4.18135        -1.87165
H         -5.98561         3.63127        -2.47385
O          5.84730        -7.34934         3.06495
H          4.93873        -7.68602         3.27046
O         -4.24768       -10.46453        -0.65702
H         -3.92884       -10.19004        -1.54792
O          5.92221        -1.56883        -1.90364
H          5.25962        -1.75552        -2.60997
O         -0.11528       -11.28431         1.30068
H         -0.01718       -10.85933         2.17698
O          2.98989         6.36267         1.66520
H          2.47533         6.62354         2.46397
O         -2.21159        -6.09113        -2.92058
H         -2.87601        -6.69841        -3.31754
O         -0.82758         2.85141        -2.13249
H         -0.50376         3.59875        -2.69071
O          8.74910         4.42620         1.47707
H          8.67619         5.12749         2.15556
O          9.58722        -1.14134        -1.93636
H          9.99394        -1.85530        -2.47017
O         -9.42930        -5.49730        -1.02065
H         -8.94039        -5.20348        -1.82260
H         12.19155        -1.19525        -0.34244
H         12.31418         1.21810        -0.12759
H         11.02898         3.30873        -1.18841
H          9.71172         5.66272         0.07931
H          8.36346         7.50412         1.10499
H          7.16834         9.88819         0.92187
H          5.14127        11.20977         0.66724
H          2.43129        11.24097         0.95981
H         -0.01798        11.17323         0.73154
H         -2.42579        11.10283         0.56835
H         -4.92982        11.12298         0.42275
H         -7.05301         9.95310         0.22952
H         -8.34248         7.81565        -0.08569
H         -9.66936         5.71238        -0.18360
H        -10.92744         3.62077         0.04160
H        -12.05008         1.37994         0.64883
H        -11.90242        -1.03370         1.00218
H        -10.58823        -3.21251         0.90361
H         -9.36606        -5.20016         1.02239
H         -8.25542        -7.34488         1.13695
H         -6.47905        -8.88481         2.45142
H         -4.47546       -10.27259         2.23725
H         -2.33065       -10.74898         1.36859
H          0.16336       -10.83534        -0.69010
H          2.35422       -11.04569         1.48059
H          5.01671       -10.93825         1.34575
H          7.08498        -9.66224         1.49958
H          8.27442        -7.22153         1.98133
H          9.50735        -5.03485         1.55585
H         10.95154        -3.33746        -0.21390
