         324
 CSIRO Nanostructure Databank - Neutral Graphene Oxide Data Set
C          1.62273         3.43572         1.51177
C          0.43221         4.06273         1.16558
C          1.38293         6.33600         1.50113
C          0.24689         5.43940         1.26036
C          1.32755         7.75337         1.05554
C          0.10775         8.44432         0.94627
C          1.26918        10.58490         0.77468
C          0.07576         9.82629         0.79909
C          1.26237        12.05147         0.74943
C          0.06293        12.77606         0.85070
C          1.23464        14.91984         0.72013
C          0.04367        14.16585         0.82036
C          1.18953        16.38302         0.62918
C          0.00662        17.07069         0.43069
C          1.07815        19.21497        -0.13886
C         -0.05090        18.45552         0.10621
C          1.03633        20.62696        -0.48077
C         -0.11638        21.38606        -0.34786
C          1.05940        23.54943        -0.41077
C         -0.10488        22.80784        -0.32750
C          1.11175        24.99464        -0.19288
C         -0.07965        25.74172         0.05045
C          1.15687        27.83390         0.05335
C         -0.06443        27.11952         0.13041
C          1.20199        29.26353         0.09317
C          4.02273         3.52646         1.49610
C          2.80638         4.19077         2.05295
C          3.90009         6.38362         1.11936
C          2.74039         5.69684         1.74410
C          3.80756         7.76139         0.82095
C          2.53588         8.48082         0.93531
C          3.81131        10.61298         0.79880
C          2.49225         9.88846         0.80141
C          3.73787        12.09565         0.50421
C          2.48719        12.78592         0.64524
C          3.75037        14.93338         0.66471
C          2.45972        14.21136         0.65827
C          3.76173        16.44756         0.62125
C          2.44357        17.16458         0.63596
C          3.62962        19.17075        -0.47140
C          2.39326        18.59769         0.14932
C          3.59114        20.61548        -0.89527
C          2.27191        21.33012        -0.87871
C          3.60339        23.50504        -0.64305
C          2.29695        22.84644        -0.79760
C          3.60591        25.00187        -0.74159
C          2.33676        25.67870        -0.25908
C          3.60663        27.80874        -0.04032
C          2.37310        27.09748        -0.07777
C          3.63928        29.22523        -0.02294
C          2.39315        29.93904         0.01354
C          6.28434         3.49631         0.61150
C          5.09404         4.20308         0.92549
C          6.14630         6.28325         0.08777
C          5.04468         5.64359         0.72054
C          6.04846         7.69292        -0.15731
C          4.91582         8.41701         0.21521
C          6.11438        10.62429        -0.09676
C          4.78600         9.89203        -0.13934
C          6.13767        12.10641        -0.15381
C          4.92847        12.79886         0.20796
C          6.15527        14.93468         0.00083
C          4.96405        14.22649         0.23521
C          6.16429        16.38210        -0.03806
C          4.97035        17.12441         0.11453
C          6.11723        19.17758        -0.57616
C          4.94131        18.50271        -0.24428
C          6.09873        20.57708        -1.18095
C          4.84716        21.38020        -0.87239
C          6.08774        23.53815        -0.70421
C          4.82207        22.79042        -0.74043
C          6.13255        24.89005        -0.38946
C          4.85186        25.57731        -0.10458
C          6.13548        27.78225         0.08620
C          4.86144        27.06801         0.12503
C          6.12197        29.20698         0.01899
C          4.88344        29.90243        -0.00941
C          8.66657         3.35474         0.10810
C          7.43376         4.11193         0.07556
C          8.49210         6.24176        -0.68344
C          7.33523         5.51794        -0.26070
C          8.47219         7.72307        -0.56624
C          7.15724         8.39814        -0.91202
C          8.46193        10.62565        -1.13991
C          7.30329         9.87414        -0.54372
C          8.45847        12.15480        -1.20963
C          7.30111        12.79660        -0.46408
C          8.58546        14.91546        -0.52276
C          7.35668        14.22495        -0.34158
C          8.61000        16.34388        -0.47559
C          7.37929        17.06404        -0.34019
C          8.59697        19.18024        -0.64000
C          7.36329        18.47787        -0.52036
C          8.55271        20.63056        -0.69403
C          7.38011        21.31882        -0.88343
C          8.61323        23.57676        -0.75970
C          7.33940        22.80459        -0.96725
C          8.58564        24.97668        -0.30391
C          7.36338        25.63742        -0.17327
C          8.58578        27.78254         0.28159
C          7.35807        27.06925         0.09568
C          8.59777        29.23495         0.12505
C          7.36248        29.88919        -0.04331
C         11.17041         3.32003        -0.45801
C          9.80878         3.63369        -0.65776
C         10.95336         6.29116        -1.29816
C          9.62769         5.66047        -1.22785
C         11.02113         7.68437        -0.75810
C          9.74609         8.47222        -0.69420
C         11.04208        10.62635        -1.26051
C          9.74497         9.88254        -1.19536
C         11.03352        12.08923        -1.01886
C          9.81260        12.79159        -0.89311
C         11.07362        14.90163        -0.71033
C          9.82809        14.19431        -0.70627
C         11.09099        16.33347        -0.65374
C          9.84194        17.05340        -0.58546
C         11.09519        19.18931        -0.57879
C          9.83125        18.48041        -0.59463
C         11.11276        20.60260        -0.50626
C          9.82623        21.33220        -0.39615
C         11.11635        23.56325        -0.52483
C          9.83808        22.81338        -0.39033
C         11.08073        24.97624        -0.09479
C          9.82148        25.63117         0.01624
C         11.01261        27.56732         0.83452
C          9.78485        26.99799         0.42164
C         11.04764        29.73544         0.44326
C          9.77747        30.03948        -0.09086
C         13.54145         3.41848        -0.97632
C         12.29581         4.02890        -1.02341
C         13.51426         6.28745        -1.14526
C         12.24748         5.49606        -1.38469
C         13.55687         7.63567        -0.97070
C         12.31240         8.39996        -0.71355
C         13.53443        10.61888        -0.71813
C         12.31456         9.86379        -1.00561
C         13.51483        11.98824        -0.80861
C         12.28278        12.75292        -0.90281
C         13.54258        14.90430        -0.76707
C         12.30803        14.18448        -0.79609
C         13.56934        16.30873        -0.72711
C         12.32781        17.03123        -0.68911
C         13.55149        19.18860        -0.58348
C         12.32630        18.47462        -0.62978
C         13.54805        20.58508        -0.42197
C         12.33132        21.29899        -0.42074
C         13.60621        23.49420        -0.02171
C         12.38563        22.78668        -0.46801
C         13.57216        24.94165         0.12202
C         12.29947        25.65653         0.09584
C         13.46327        27.87587         0.35508
C         12.25866        27.02183         0.51693
C         13.50829        29.36965         0.76621
C         12.34099        30.11037         0.12309
C         16.09437         3.41737        -1.24708
C         14.79118         4.05998        -1.41662
C         16.06792         6.32601        -1.20791
C         14.79518         5.61560        -1.41092
C         16.12802         7.68421        -0.71187
C         14.80615         8.35025        -0.58927
C         16.05157        10.57270        -0.32322
C         14.76487         9.85059        -0.42505
C         16.02734        11.94386        -0.36761
C         14.81992        12.68061        -0.80962
C         16.08190        14.89665        -0.49478
C         14.83088        14.17779        -0.84372
C         16.06210        16.33057        -0.66390
C         14.85178        17.00625        -0.79014
C         16.12085        19.24982        -0.92242
C         14.82132        18.48246        -0.90836
C         16.11705        20.61796        -0.30108
C         14.80489        21.30620        -0.09247
C         15.98975        23.42539         0.61558
C         14.77037        22.77663         0.11309
C         15.98260        24.96667         0.76235
C         14.74598        25.64934         0.37014
C         16.05543        27.82105         0.41718
C         14.78953        27.10992         0.21748
C         16.03800        29.25897         0.35866
C         14.83296        29.97536         0.37633
C         18.57734         3.50529        -1.34360
C         17.25689         4.13707        -1.45875
C         18.82721         6.40504        -0.53417
C         17.18995         5.57312        -1.56720
C         18.45232         7.55173         0.20338
C         17.25029         8.34372        -0.14378
C         18.29719        10.52904         0.62659
C         17.21404         9.78409         0.11143
C         18.46140        11.97982         0.14778
C         17.14806        12.74730         0.25357
C         18.49197        14.89742         0.03496
C         17.23693        14.20420        -0.17380
C         18.58503        16.29268        -0.23158
C         17.38745        17.00399        -0.75777
C         18.70549        19.26779        -0.60572
C         17.43431        18.51127        -0.92755
C         18.66704        20.68964        -0.21037
C         17.38534        21.42387        -0.31290
C         18.54724        23.43626         0.79257
C         17.30695        22.81616         0.25126
C         18.51853        24.98554         0.98033
C         17.26058        25.69916         0.72394
C         18.53252        27.82004         0.56493
C         17.27478        27.10101         0.55054
C         18.51242        29.24693         0.41874
C         17.28820        29.94027         0.31354
C         19.65073         4.05842        -0.72233
C         20.28905         5.55457         1.18273
C         19.63251         5.35347        -0.04132
C         20.09138         6.75078         1.87584
C         19.18151         7.71173         1.41095
C         20.26875        10.80627         2.09050
C         19.22977        10.04204         1.58283
C         20.44311        12.15794         1.68823
C         19.56010        12.76738         0.82745
C         20.83518        14.89228         0.71720
C         19.62916        14.18787         0.52727
C         20.91679        16.25011         0.45648
C         19.79998        16.97732        -0.00500
C         20.98549        19.19139         0.52270
C         19.94104        18.45062        -0.19898
C         20.97906        20.54817         0.58128
C         19.82242        21.33785         0.21336
C         20.98383        23.51935         0.65848
C         19.82790        22.76918         0.52781
C         20.96598        24.93506         0.78611
C         19.80054        25.68559         0.83132
C         20.96926        27.89000         0.66326
C         19.77648        27.13847         0.68555
C         20.94679        29.28431         0.52276
C         19.74451        29.96093         0.39992
O         19.75938        18.94716        -1.56008
O         17.59063        17.64268        -2.07071
O          7.09357        10.11531         0.87477
O          8.11714        23.34425        -2.11038
O          2.13243        22.13640        -2.09630
O          3.50787        19.50036        -1.89899
O         15.38415        19.08084        -2.15585
O         14.03634        27.62963        -0.95287
O         15.51542        20.61149         1.03351
O         15.85618        24.03966         1.90847
O         11.60165         6.00213        -2.59000
O          9.10247         8.29368         0.61710
O         19.00305         8.81783         2.23356
O         15.01255        13.40215        -2.09441
O         18.37042         6.27419        -1.86035
O          2.51385        18.29474         1.57724
O          8.91510        10.03465        -2.40987
O          2.05560         6.36496         2.84865
O         11.85955        23.30889        -1.75771
O         11.85095        10.15709        -2.38538
O         11.71435         7.88969         0.52661
O          4.74094        26.06008         1.24730
O         14.60191         8.96106         0.74622
O          3.97941        15.73887         1.88676
O         10.96037        28.78734         1.51025
O          9.72902        22.10690         0.88744
O         14.71056         4.84780        -2.65077
O         18.44775        24.03211         2.10039
O         17.38904        22.58835        -1.20310
O          9.53722         4.41619        -1.82147
O          4.27653         9.98545        -1.48813
H          4.84091         9.42430        -2.06629
O         13.44352        29.44591         2.21262
H         12.49950        29.31294         2.46592
O          4.38685        10.48715         2.12846
H          3.78743        10.92388         2.76852
O          2.84206         4.01246         3.50216
H          2.37520         4.79228         3.88470
O          6.85689         8.28662        -2.31920
H          7.56894         8.76430        -2.81198
O         18.78485        11.90489        -1.26584
H         19.67684        11.51184        -1.36070
O         16.82181        12.79939         1.67787
H         15.96453        13.26100         1.78727
O          3.72705        25.34465        -2.16786
H          3.13782        24.74286        -2.67189
O          6.06852        20.36160        -2.63244
H          5.18630        19.96620        -2.83508
O          8.19545        12.50597        -2.59877
H          8.73219        11.89617        -3.15556
H          1.69462         2.34037         1.45637
H         -0.41876         3.44194         0.84635
H         -0.72131         5.87073         0.97156
H         -0.84186         7.89673         1.02024
H         -0.90116        10.32436         0.74186
H         -0.89373        12.24661         0.95077
H         -0.92639        14.67369         0.89706
H         -0.95075        16.53282         0.45696
H         -1.04670        18.89539        -0.04230
H         -1.07006        20.89016        -0.11947
H         -1.06118        23.30686        -0.11941
H         -1.04316        25.21974         0.12223
H         -1.00554        27.67373         0.25721
H          0.25568        29.81843         0.17074
H          4.10862         2.44019         1.65371
H          2.41191        31.03832         0.02246
H          6.32553         2.42451         0.85713
H          4.89241        31.00254        -0.01506
H          8.71491         2.53488         0.84077
H          7.35579        30.97879        -0.19417
H         11.41022         2.46446         0.19243
H          9.64832        30.96704        -0.66865
H         13.61121         2.38825        -0.59506
H         12.52979        30.74872        -0.75133
H         16.13888         2.36118        -0.94445
H         14.88867        31.07495         0.35304
H         18.65727         2.46474        -1.69454
H         17.29737        31.03735         0.23587
H         20.55176         3.43897        -0.58810
H         20.93848         4.77232         1.59871
H         20.59988         6.92817         2.83191
H         20.90134        10.39120         2.88502
H         21.24219        12.73966         2.16926
H         21.73521        14.35989         1.05279
H         21.88153        16.75481         0.59551
H         21.80536        18.64357         1.00714
H         21.81320        21.05934         1.08160
H         21.96298        23.03905         0.52257
H         21.93689        25.44628         0.73114
H         21.93969        27.38689         0.76598
H         21.89442        29.84045         0.51186
H         19.72789        31.05444         0.29016
