         324
 CSIRO Nanostructure Databank - Neutral Graphene Oxide Data Set
C          1.71446         3.14997        -1.26812
C          0.56119         3.48146        -1.97598
C          0.85623         5.82006        -1.44726
C          0.14236         4.81405        -2.11363
C          0.89977         8.13744        -0.71019
C         -0.06783         8.57266         0.14695
C          1.11478        10.65332         0.68865
C          0.07658         9.79285         0.89169
C          1.17544        11.93123         1.46311
C         -0.06249        12.70093         1.67863
C          1.19521        14.81340         1.90617
C         -0.03208        14.03390         1.91857
C          1.17134        16.25845         1.93884
C         -0.04004        16.95268         1.75164
C          1.11156        19.08865         1.50347
C         -0.05167        18.30843         1.42542
C          1.15021        20.40887         0.99646
C          0.09396        20.89930         0.20031
C          1.24441        23.00743        -0.24992
C          0.10620        22.17492        -0.33932
C          1.24396        24.32886        -0.83197
C          0.06524        24.90892        -1.36639
C          1.26248        26.93997        -1.95063
C          0.07001        26.18392        -1.90261
C          1.28337        28.25352        -2.52394
C          3.83205         3.91081        -0.19051
C          2.48587         4.16556        -0.64733
C          3.65441         6.91756        -0.73854
C          1.96157         5.46975        -0.66359
C          3.42762         8.24010        -1.43710
C          2.14317         8.94465        -0.94754
C          3.49601        11.08159        -0.20298
C          2.19340        10.30878        -0.28449
C          3.62006        12.25204         0.70651
C          2.45403        12.70989         1.52380
C          3.65819        14.91260         1.69341
C          2.41364        14.17532         1.72207
C          3.63536        16.34748         1.97133
C          2.40055        16.99955         2.02594
C          3.56425        19.27325         2.34519
C          2.23060        18.48952         2.33214
C          3.59213        20.72447         1.87683
C          2.30705        21.29704         1.22741
C          3.62975        23.23182         0.34645
C          2.41295        22.52316         0.41008
C          3.65902        24.51682        -0.30224
C          2.45265        25.07549        -0.84043
C          3.67787        27.11809        -1.49471
C          2.46338        26.37958        -1.42379
C          3.67941        28.42018        -2.09868
C          2.44667        28.96773        -2.59505
C          6.21780         4.21560        -0.19882
C          4.90658         4.78188        -0.36380
C          5.97620         6.80387        -1.50223
C          4.77445         6.15083        -0.89398
C          6.00361         8.31839        -1.50856
C          4.71451         9.08521        -1.32243
C          6.07249        11.06210        -0.37563
C          4.75591        10.46291        -0.74221
C          6.12256        12.34048         0.31704
C          4.95570        12.75200         1.21185
C          6.12226        14.94530         1.74221
C          4.86151        14.25175         1.47551
C          6.10473        16.39011         2.06788
C          4.89918        17.05580         2.16070
C          6.15455        19.32756         2.37563
C          4.86636        18.52343         2.45471
C          6.13682        20.74325         1.83909
C          4.85115        21.36972         1.45226
C          6.10993        23.32421         0.57421
C          4.85893        22.62636         0.82036
C          6.10031        24.64499         0.04205
C          4.87041        25.24450        -0.39670
C          6.09878        27.28597        -1.10662
C          4.88598        26.55173        -0.99453
C          6.09774        28.57378        -1.74499
C          4.87869        29.12471        -2.21803
C          8.62656         4.12508        -0.72989
C          7.37480         4.78101        -0.72176
C          8.50043         6.88764        -1.37040
C          7.28169         6.02156        -1.57979
C          8.47197         8.29972        -1.23187
C          7.27773         9.02855        -1.21708
C          8.53121        11.05186        -0.51052
C          7.25032        10.39366        -0.73783
C          8.51846        12.51998        -0.25023
C          7.28201        13.08383         0.34681
C          8.59079        15.16511         1.13117
C          7.38661        14.31265         1.17313
C          8.64391        16.30269         1.92279
C          7.41929        17.03626         2.36502
C          8.68253        19.40262         2.23698
C          7.46098        18.58220         2.49167
C          8.63973        20.71918         1.67481
C          7.40278        21.36877         1.39946
C          8.58755        23.39785         0.66473
C          7.36459        22.68803         0.87272
C          8.53483        24.74346         0.23144
C          7.32148        25.38570        -0.08335
C          8.51170        27.50376        -0.72666
C          7.32871        26.74269        -0.61324
C          8.53735        28.74688        -1.45885
C          7.31018        29.26190        -1.94054
C         10.98695         4.07163        -1.52218
C          9.78157         4.76177        -1.26807
C         10.91922         6.92436        -1.75060
C          9.72642         6.21061        -1.40549
C         10.95582         8.45498        -1.79015
C          9.80335         8.91423        -0.84395
C         10.98466        10.99288        -0.16933
C          9.72061        10.39627        -0.66055
C         11.04544        12.42793         0.21864
C          9.81247        13.24268        -0.02882
C         11.15831        15.24888         0.84948
C          9.81843        14.63931         0.51182
C         11.14662        16.40818         1.75678
C          9.94171        16.79169         2.30121
C         11.16969        19.39427         2.06418
C          9.94196        18.88138         2.55161
C         11.12585        20.75636         1.67501
C          9.88699        21.41950         1.49182
C         11.06050        23.44670         0.73319
C          9.86398        22.77940         0.99372
C         11.04250        24.75336         0.05820
C          9.78371        25.52797         0.21455
C         11.08427        27.66200        -0.46941
C          9.77495        26.96736        -0.19463
C         11.04765        29.02930        -1.28265
C          9.73966        29.41802        -1.78013
C         13.41330         4.16372        -2.15016
C         12.13157         4.75691        -2.01768
C         13.81387         7.18008        -1.98010
C         11.94039         6.16455        -2.26156
C         13.62962         8.34237        -1.25313
C         12.33646         9.10227        -1.33828
C         13.43059        10.76180         0.40949
C         12.29337        10.35790        -0.52116
C         13.53162        12.27423         0.58970
C         12.36943        13.06810         0.48934
C         13.57493        15.01526         1.36514
C         12.39380        14.42942         0.85633
C         13.58725        16.44236         1.69102
C         12.37880        17.16606         1.89079
C         13.61271        19.26866         1.62379
C         12.39037        18.60195         1.95549
C         13.65913        20.70673         1.39844
C         12.41026        21.47178         1.58916
C         13.61112        23.50105         0.56532
C         12.36971        22.90474         1.09733
C         13.59819        24.78591         0.01873
C         12.31574        25.45161        -0.28727
C         13.53139        27.53126        -0.86944
C         12.33580        26.91152        -0.52336
C         13.51921        28.85062        -1.49410
C         12.30273        29.44856        -1.86584
C         15.87465         4.04982        -2.00553
C         14.68660         4.82322        -2.04135
C         15.99398         6.72457        -1.08643
C         14.83186         6.22442        -1.72857
C         15.98600         8.04514        -0.52563
C         14.77233         8.83671        -0.50676
C         15.90477        10.63100         0.82544
C         14.74480        10.11523         0.07055
C         15.97744        12.08024         1.15974
C         14.75364        12.86791         1.01568
C         16.01974        14.84956         1.82888
C         14.75519        14.23291         1.40829
C         16.08023        16.39080         1.86329
C         14.81691        17.13765         1.69790
C         16.09673        19.23834         1.29451
C         14.81897        18.53416         1.57205
C         15.97657        20.51946         0.48258
C         14.80400        21.35045         0.95959
C         16.05053        23.40822         0.32935
C         14.83399        22.76599         0.65002
C         16.05267        24.78688        -0.06088
C         14.81037        25.46380        -0.27426
C         16.00709        27.44733        -1.06448
C         14.78922        26.81239        -0.75118
C         15.99142        28.78647        -1.61220
C         14.75746        29.42691        -1.86717
C         18.36364         3.89485        -1.79631
C         17.10871         4.59469        -1.58317
C         18.37227         6.43674        -0.44867
C         17.14187         5.89598        -1.02365
C         18.41257         7.87173        -0.13382
C         17.21582         8.57605        -0.02364
C         18.47456        10.46064         1.18965
C         17.18139         9.82736         0.76501
C         18.44442        11.88552         1.67895
C         17.18695        12.66965         1.53043
C         18.48152        14.81408         1.63581
C         17.27748        14.10971         1.65403
C         18.49920        16.23667         1.38494
C         17.35158        16.99851         1.46496
C         18.42771        19.01372         0.23251
C         17.36294        18.45362         1.17302
C         18.50195        20.52942         0.36424
C         17.29864        21.25499         0.42862
C         18.53442        23.35301         0.19588
C         17.31041        22.67172         0.34510
C         18.55542        24.86682         0.20020
C         17.26887        25.48132        -0.28533
C         18.49401        27.46749        -1.11013
C         17.25675        26.78735        -0.81497
C         18.45593        28.78800        -1.65532
C         17.21175        29.42275        -1.89764
C         19.56939         4.44028        -1.48423
C         20.92575         6.46676        -0.64418
C         19.67421         5.67408        -0.68689
C         20.94681         7.76361        -0.27860
C         19.72015         8.55466        -0.02331
C         21.00124        10.57268         1.11069
C         19.75850         9.93012         0.61166
C         20.99288        11.80796         1.64366
C         19.76011        12.60330         1.86742
C         21.02579        14.88951         1.69523
C         19.77475        14.11563         1.85995
C         21.02767        16.18206         1.33026
C         19.77455        16.85596         0.90826
C         20.99589        19.07784         0.34608
C         19.76339        18.26457         0.36511
C         20.96942        20.42893         0.28923
C         19.74060        21.20322         0.28441
C         20.97768        23.36024        -0.01765
C         19.76077        22.63306         0.18760
C         20.97222        24.70659        -0.37054
C         19.79163        25.46175        -0.42665
C         20.93445        27.51098        -1.27306
C         19.75429        26.81337        -0.92413
C         20.88806        28.81445        -1.77739
C         19.67118        29.45317        -1.97336
O         11.52879        24.72286        -1.34343
O          1.78519        10.15695        -1.68790
O         18.99250         5.59572         0.60592
O          7.47925        17.71112         3.65412
O         10.50853        15.53528        -0.43807
O          6.15202        20.44355         3.30379
O          9.99796        17.72783         3.34012
O         19.77852        13.35176         3.12268
O          7.00762        14.11157         2.60476
O          2.66482        21.55239         2.62982
O          4.16313        18.98283         3.65263
O         12.90988         6.85491        -3.00066
O         12.55351        10.43171        -1.94986
O          5.85754         7.54814        -2.75929
O          3.37172        12.46711        -0.70931
O         11.14655        28.92086         0.19226
O          9.77363        26.57809         1.23701
O         19.79384        17.11235        -0.56194
O          9.20639        13.22579        -1.35801
O         19.70403         9.82213        -0.84416
O         12.49696        22.58367         2.53775
O         16.03877        15.59742         3.08689
O         10.81550        11.37956         1.24242
O         17.08860        19.27216         2.36728
O          0.50020         7.14043        -1.62127
O          4.66126        10.24109        -2.20850
O         18.45166        10.74132         2.60866
O          2.06630        11.87081         2.65082
O         16.27494         9.70077         1.91698
O          2.59926         6.48896         0.09049
O          7.37280         5.50637        -2.94298
H          7.03098         6.22133        -3.52916
O         15.61360        20.14452        -0.87876
H         16.39014        19.67393        -1.27497
O          1.70165        18.53970         3.68613
H          2.47768        18.53450         4.29479
O         10.66318         8.91468        -3.10890
H         11.42446         8.69522        -3.68598
O         10.16936         8.36745         0.46318
H         10.05098         9.05651         1.15180
O         17.94821        18.76520        -1.12286
H         18.42472        17.96069        -1.44702
O         18.63059        25.25002         1.63463
H         19.45485        24.85560         1.99251
O         13.08241        10.20183         1.71211
H         13.87222        10.25808         2.29244
O          3.23710         7.94984        -2.83492
H          3.37483         8.79542        -3.31727
O          5.18805        12.08973         2.48155
H          5.92030        12.58162         2.92894
H          2.07411         2.11221        -1.25216
H         -0.00906         2.68786        -2.47775
H         -0.73013         5.06900        -2.72766
H         -1.00008         8.00125         0.24267
H         -0.71164        10.05070         1.61287
H         -1.03016        12.18338         1.60425
H         -0.98513        14.55277         2.08761
H         -0.98794        16.40279         1.69660
H         -0.99791        18.74419         1.07893
H         -0.78345        20.26851         0.01002
H         -0.77509        22.50767        -0.90164
H         -0.88078        24.35246        -1.34512
H         -0.85869        26.61646        -2.30146
H          0.34492        28.67424        -2.91323
H          4.07936         2.86550         0.05761
H          2.45999        29.97177        -3.04319
H          6.28352         3.22336         0.27551
H          4.88724        30.11438        -2.69795
H          8.70662         3.10122        -0.33275
H          7.30349        30.22270        -2.47564
H         11.04727         2.99287        -1.31446
H          9.69421        30.23023        -2.52121
H         13.45106         3.06287        -2.09673
H         12.30340        30.26081        -2.60697
H         15.83711         2.99422        -2.31462
H         14.76277        30.42402        -2.33191
H         18.32699         2.94233        -2.34598
H         17.20441        30.43819        -2.32184
H         20.49919         3.95155        -1.81239
H         21.86563         5.96022        -0.91260
H         21.90291         8.30708        -0.26785
H         21.95517        10.04154         0.97975
H         21.93758        12.25051         1.99180
H         21.96679        14.39783         1.98055
H         21.97848        16.72728         1.24920
H         21.96080        18.55229         0.33706
H         21.92905        20.96200         0.26038
H         21.94020        22.83363        -0.00976
H         21.92936        25.16176        -0.66257
H         21.91545        27.03803        -1.13225
H         21.82550        29.33193        -2.02437
H         19.63484        30.47294        -2.38184
