         720
 CSIRO Nanostructure Databank - Neutral Graphene Oxide Data Set
C         22.98969        27.42098         0.01673
C         23.03035        28.79145         0.21951
C         23.13401        31.76923         0.65497
C         23.20911        33.08132         0.93373
C         23.36584        35.95068         1.79612
C         23.25136        37.30157         1.60807
C         23.13284        40.29960         1.10421
C         23.29760        41.60708         1.40896
C         23.75076        44.30691         2.43229
C         23.85678        45.66915         2.81082
C         25.33141        24.53966        -0.27705
C         24.16372        25.25409        -0.22087
C         25.43708        27.36395        -0.12214
C         24.18603        26.68068        -0.11419
C         25.47846        28.76585         0.13515
C         24.26226        29.46950         0.33637
C         25.67695        31.57426         0.86296
C         24.29817        30.86825         0.80970
C         25.68865        33.03281         0.89630
C         24.47600        33.71439         1.48645
C         25.64093        35.87505         0.84542
C         24.48937        35.21222         1.31589
C         25.69879        37.38746         0.95646
C         24.31526        38.01163         0.87363
C         25.53326        40.21199         0.32770
C         24.26314        39.50447         0.61457
C         25.61450        41.62885         0.55312
C         24.55394        42.29838         1.19330
C         25.93473        44.38235         1.28779
C         24.70183        43.65932         1.65016
C         25.97364        45.86363         1.56360
C         24.87796        46.47819         2.34116
C         26.05788        48.61769         2.19549
C         25.04074        47.85396         2.70920
C         27.89881        23.10911         0.13442
C         27.81215        24.44364        -0.33855
C         26.60254        25.19320        -0.35975
C         27.86954        27.33792        -0.51427
C         26.64701        26.63061        -0.36523
C         27.92899        28.74390        -0.29291
C         26.74987        29.45736         0.09768
C         28.00662        31.59115         0.00043
C         26.82676        30.84873         0.31903
C         28.02155        32.99852         0.14799
C         26.83788        33.73518         0.51020
C         28.07858        35.97887         0.31096
C         26.81036        35.18477         0.50941
C         27.88729        37.38792        -0.21646
C         26.71728        38.06681         0.06177
C         27.72542        40.20487        -0.90139
C         26.62753        39.48882        -0.14286
C         27.82567        41.67593        -0.54990
C         26.82822        42.32960         0.13433
C         27.96600        44.52295        -0.11964
C         26.90678        43.77156         0.34578
C         27.89519        46.01571        -0.11966
C         26.79571        46.74708         0.67229
C         27.55451        49.11060         0.30831
C         26.85660        48.18415         1.07496
C         28.03616        50.41476         0.69879
C         30.34770        23.08729        -0.14449
C         29.10902        22.45572         0.21906
C         30.33272        24.39626        -0.60544
C         29.05131        25.07543        -0.78977
C         30.38724        27.29382        -0.85820
C         29.07248        26.61249        -0.93533
C         30.33608        28.77426        -1.14204
C         29.12554        29.48354        -0.57249
C         30.33354        31.60616        -1.08173
C         29.14817        30.86633        -0.49873
C         30.45191        33.02426        -0.59200
C         29.32450        33.75649         0.08295
C         30.34654        35.93845        -0.79495
C         29.05897        35.16901        -0.55262
C         30.34542        37.41392        -0.67000
C         29.08575        38.11926        -0.61839
C         30.26530        40.19314        -1.39687
C         29.05008        39.48884        -0.83422
C         30.27664        41.67745        -1.11919
C         28.96380        42.43654        -1.19611
C         30.28440        44.55655        -0.96691
C         29.11301        43.87618        -0.74284
C         30.41750        45.96689        -0.52426
C         29.14941        46.73073        -0.43785
C         30.36340        48.88690        -0.91135
C         29.16527        48.05130        -0.75606
C         30.29918        50.37366        -0.56016
C         29.19853        50.96713         0.24536
C         32.96478        20.35994         0.40751
C         31.72053        21.06574         0.39655
C         32.82310        23.05317        -0.47715
C         31.61007        22.34795        -0.09975
C         32.83767        24.40499        -0.68772
C         31.57368        25.11088        -1.09470
C         32.85284        27.32332        -0.73541
C         31.57079        26.61014        -0.83498
C         32.83578        28.74071        -0.65280
C         31.62884        29.48045        -0.80698
C         32.91420        31.57892        -1.17864
C         31.62885        30.85884        -0.87106
C         32.89273        33.04448        -0.85973
C         31.67357        33.70782        -0.70357
C         32.91049        35.93284        -0.46519
C         31.63921        35.19859        -0.80924
C         32.82843        37.43235        -0.67337
C         31.56362        38.11484        -0.76119
C         32.77318        40.24150        -0.98892
C         31.57194        39.53447        -0.98918
C         32.83081        41.66012        -1.39944
C         31.48306        42.38965        -1.49355
C         32.83103        44.62231        -1.58950
C         31.49791        43.89049        -1.50972
C         32.87299        46.16304        -1.49456
C         31.67760        46.72888        -0.75127
C         32.85898        48.89692        -0.65312
C         31.66803        48.21656        -0.80192
C         32.85241        50.34375        -0.52303
C         31.62482        51.05505        -0.46408
C         32.81946        53.14911        -0.58661
C         31.62672        52.45995        -0.46784
C         35.50450        18.77364         0.27083
C         35.32105        20.07173        -0.37781
C         34.10814        20.88739        -0.13678
C         35.34039        22.97645        -1.10751
C         34.06785        22.26405        -0.67643
C         35.34012        24.51407        -1.25169
C         34.14664        25.13282        -0.48501
C         35.33568        27.32543        -0.58101
C         34.07908        26.62466        -0.67387
C         35.32695        28.70093        -0.31730
C         34.04575        29.47734        -0.12959
C         35.33324        31.62142        -0.55153
C         34.16052        30.91334        -0.64237
C         35.44269        33.05870        -0.86255
C         34.15219        33.76870        -1.12257
C         35.39471        36.01797        -1.03649
C         34.10939        35.26243        -1.13114
C         35.31328        37.46953        -0.72289
C         34.00190        38.15893        -0.62008
C         35.21381        40.33657        -0.57305
C         34.01513        39.59108        -0.70403
C         35.25445        41.74189        -0.78066
C         34.06958        42.44497        -1.18305
C         35.30096        44.55967        -1.10843
C         34.07804        43.84978        -1.31438
C         35.32115        46.02240        -0.94258
C         34.13733        46.78446        -0.93211
C         35.33672        48.85332        -0.24137
C         34.13350        48.16931        -0.60950
C         35.34386        50.32913        -0.14744
C         34.09072        51.04431        -0.42250
C         35.27200        53.23368        -0.62419
C         34.04974        52.46353        -0.55365
C         35.35394        54.52394        -1.10924
C         37.87549        18.70868        -0.35777
C         36.67942        18.09502         0.16767
C         37.88778        20.05533        -0.65480
C         36.62964        20.79702        -0.84159
C         37.78779        22.99881        -0.65712
C         36.62682        22.27851        -0.89602
C         37.81943        24.43901        -0.60820
C         36.62372        25.20132        -0.79195
C         37.87915        27.38739        -0.71163
C         36.59005        26.58787        -0.61708
C         37.84969        28.73170        -0.01764
C         36.55467        29.40057         0.04018
C         37.87539        31.57525        -0.14938
C         36.54444        30.93747        -0.02964
C         37.90223        33.07256        -0.35831
C         36.62420        33.75946        -0.71930
C         37.89597        36.00164        -0.39886
C         36.68242        35.24354        -0.86175
C         37.69147        37.35654         0.32323
C         36.44050        38.15830        -0.03292
C         37.64204        40.46259         0.41273
C         36.39923        39.65696         0.01989
C         37.73780        41.78998        -0.32940
C         36.51495        42.44299        -0.70294
C         37.79034        44.58131        -1.16831
C         36.50067        43.84011        -0.94768
C         37.80726        45.92106        -0.42566
C         36.50925        46.68156        -0.56743
C         37.78243        48.48303         0.38878
C         36.50892        48.02734        -0.15518
C         37.74977        50.62224         0.59653
C         36.47474        51.12459         0.13285
C         37.78447        53.35444        -0.17238
C         36.45959        52.59310        -0.06270
C         37.80567        54.63746        -0.89954
C         36.59392        55.20161        -1.25636
C         40.39287        15.82370        -0.20831
C         39.22729        16.48759        -0.14988
C         40.43093        18.66920        -0.62605
C         39.12443        17.91481        -0.54052
C         40.41218        20.12938        -0.43711
C         39.16170        20.83393        -0.92682
C         40.23498        22.93381         0.14153
C         39.01049        22.21446        -0.31452
C         40.18777        24.40601         0.11155
C         39.05534        25.10411        -0.25498
C         40.31268        27.32235         0.24067
C         39.14184        26.59302        -0.37442
C         40.23515        28.75164         0.57923
C         39.01206        29.42139         0.38047
C         40.12170        31.57658         0.91752
C         39.01390        30.88440         0.52993
C         40.07592        33.07960         1.07722
C         38.99489        33.77570         0.27102
C         40.11239        35.95900         0.93005
C         39.18352        35.22809        -0.04308
C         40.21551        37.41918         0.43743
C         38.95721        38.21090         0.19190
C         40.19130        40.46268         0.62279
C         38.93520        39.67192         0.28064
C         40.26441        41.76274        -0.16974
C         38.99482        42.46202        -0.42386
C         40.25404        44.56730        -0.71914
C         39.03248        43.82700        -0.77150
C         40.31506        45.96266        -0.65454
C         39.04260        46.76833        -0.82393
C         40.27458        48.76192         0.26263
C         39.01990        48.03023         0.01162
C         40.25138        50.35392         0.32612
C         38.99170        51.13428         0.24755
C         40.35153        53.28827        -0.30970
C         39.06802        52.59957         0.01211
C         40.31035        54.62136        -0.95114
C         39.08874        55.27238        -1.21063
C         40.32315        57.22142        -2.01661
C         39.12827        56.58421        -1.76737
C         42.88425        15.74303        -0.14195
C         41.68156        16.44989        -0.71912
C         42.80812        18.59649        -0.00623
C         41.69455        17.93673        -0.39767
C         42.74754        20.02469         0.49588
C         41.52688        20.78539         0.01422
C         42.73259        22.91205         0.36066
C         41.54425        22.22689         0.16647
C         42.70227        24.39354         0.35389
C         41.40358        25.07442         0.62759
C         42.71559        27.25697         1.04596
C         41.42697        26.53810         0.85512
C         42.62297        28.66254         1.50219
C         41.24536        29.33558         1.52897
C         42.65329        31.57738         1.05588
C         41.34729        30.94815         1.56893
C         42.61795        33.01739         0.80821
C         41.44492        33.73074         0.87823
C         42.74028        35.95164         0.77584
C         41.45742        35.22063         0.96225
C         42.72588        37.38023         0.26177
C         41.48441        38.14800         0.69622
C         42.76364        40.24306         0.14061
C         41.49203        39.64279         0.61124
C         42.76693        41.55332        -0.61307
C         41.45929        42.33617        -0.51090
C         42.79997        44.53379        -0.91331
C         41.49540        43.77765        -0.87202
C         42.82650        45.98307        -0.58726
C         41.55769        46.68949        -0.45298
C         42.79357        48.78965         0.10046
C         41.52878        48.05191        -0.11390
C         42.77573        50.25255        -0.25981
C         41.49129        51.02647        -0.22795
C         42.79368        53.13883        -0.68587
C         41.58864        52.49416        -0.40249
C         42.79604        54.54806        -1.05341
C         41.55375        55.23861        -1.26012
C         42.80247        57.22127        -1.99427
C         41.55933        56.57066        -1.76572
C         44.00562        16.39184         0.19598
C         45.35985        18.64169         0.26466
C         44.10660        17.86250         0.01131
C         45.24336        20.11253         0.44322
C         44.05767        20.79305         0.34116
C         45.20520        23.01612         0.40591
C         44.02268        22.25869         0.38036
C         45.23749        24.44741         0.52881
C         43.96194        25.19147         0.44130
C         45.17427        27.32898         1.02758
C         43.91757        26.61517         0.87871
C         45.15874        28.70017         1.21593
C         43.91379        29.45981         1.48051
C         45.13937        31.63277         1.04103
C         43.87507        30.92470         1.18712
C         45.17475        32.98439         0.74825
C         43.90590        33.69010         0.31797
C         45.18352        35.85788         0.56509
C         43.99434        35.18520         0.55251
C         45.24123        37.33905         0.77425
C         43.95931        38.14354         0.70394
C         45.23093        40.21352        -0.05420
C         43.94017        39.56695         0.27381
C         45.28801        41.68594        -0.08643
C         43.94543        42.40536        -0.07133
C         45.31218        44.49622        -0.22645
C         44.10226        43.73711        -0.82946
C         45.33281        45.95300        -0.58003
C         44.06041        46.62905        -0.47793
C         45.31246        48.81811        -0.54523
C         44.09455        48.06087        -0.12135
C         45.36970        50.28189        -0.25609
C         44.05259        51.03716        -0.17951
C         45.28086        53.12685        -0.74803
C         44.05567        52.45466        -0.56954
C         45.28110        54.52961        -1.08199
C         44.01335        55.22139        -1.27514
C         43.98608        56.57329        -1.73409
C         47.78576        18.67831         0.79307
C         46.64295        17.99005         0.62967
C         47.81692        20.16488         0.78600
C         46.50086        20.87064         0.64861
C         47.74586        23.00068         0.62871
C         46.50455        22.29248         0.13538
C         47.72328        24.47744         0.75530
C         46.42081        25.17847         0.66275
C         47.67365        27.25838         0.99381
C         46.43455        26.59917         0.88693
C         47.70145        28.67336         1.44203
C         46.40811        29.42150         1.48083
C         47.71613        31.57304         1.04244
C         46.41306        30.93998         1.38724
C         47.63981        32.97648         0.71602
C         46.43889        33.68407         0.69129
C         47.63835        35.85933         0.60014
C         46.46162        35.14915         0.55242
C         47.73958        37.32217         0.25412
C         46.47906        38.03947         0.48853
C         47.75225        40.23104         0.40368
C         46.50612        39.47346         0.16719
C         47.76018        41.62489         0.16192
C         46.51224        42.31497        -0.12942
C         47.80948        44.51827        -0.07088
C         46.61332        43.75339        -0.57598
C         47.79741        45.89239        -0.28525
C         46.57107        46.59772        -0.57949
C         47.91668        48.79666        -0.82435
C         46.58466        48.06473        -0.80302
C         47.82938        50.29296        -0.58647
C         46.59355        51.01001        -0.60064
C         47.76854        53.14534        -0.86110
C         46.54899        52.42291        -0.68673
C         47.72581        54.50591        -1.12430
C         46.50135        55.18539        -1.24808
C         50.25136        20.24256         0.09163
C         49.05287        20.90938         0.38549
C         50.14910        23.07218        -0.10303
C         49.01914        22.31583         0.29210
C         50.11226        24.53959        -0.08760
C         48.95279        25.23440         0.43765
C         50.05884        27.48758         0.14037
C         48.89430        26.61288         0.57639
C         50.29187        28.59478         1.18508
C         49.01321        29.44862         1.40486
C         50.14445        31.48310         0.32526
C         48.93307        30.89015         1.05620
C         50.18694        33.01368         0.33768
C         48.89797        33.72526         0.48708
C         50.18329        35.88206         1.11177
C         48.89281        35.14837         0.91860
C         50.17255        37.36233         1.05231
C         48.84886        38.06053         1.14440
C         50.15402        40.22183         0.83795
C         48.91615        39.52876         0.78429
C         50.17289        41.68358         0.76226
C         48.96490        42.38096         0.39247
C         50.15865        44.54833         0.72161
C         48.98507        43.79937         0.31511
C         50.14322        45.93760         0.60983
C         49.12828        46.62655        -0.27625
C         50.20187        48.86929         0.31843
C         48.90426        48.10604         0.13247
C         50.21474        50.30427         0.03775
C         49.03019        50.97589        -0.44642
C         50.20636        53.17502        -0.19634
C         49.10022        52.42349        -0.87917
C         51.36981        20.96484        -0.31808
C         52.46899        23.08752        -1.05963
C         51.33461        22.36197        -0.43978
C         52.36841        24.59920        -1.14775
C         51.23076        25.28581        -0.49172
C         52.53518        27.35631        -0.23390
C         51.32493        26.69489        -0.16754
C         52.73644        28.72731         0.28349
C         51.54580        29.44016         0.89970
C         52.66332        31.60147         0.45408
C         51.48114        30.88835         0.69909
C         52.67494        33.06628         0.52998
C         51.45173        33.75990         0.60148
C         52.66658        35.86974         0.84176
C         51.45432        35.15193         0.84661
C         52.65495        37.31530         1.30428
C         51.36586        38.06773         0.99395
C         52.63134        40.29026         0.88443
C         51.35705        39.49329         0.96182
C         52.48426        41.60229         1.69489
C         51.32655        42.39802         1.11718
C         52.54229        44.54157         1.45203
C         51.35267        43.83287         1.16060
C         52.49389        46.00812         1.62021
C         51.21597        46.75032         1.17148
C         52.49554        48.94877         1.28048
C         51.27160        48.21250         0.87867
C         52.52391        50.44473         0.96829
C         51.33215        51.07393         0.36169
C         51.28369        52.51529         0.28831
C         54.92923        23.22773        -1.44368
C         53.81846        22.49702        -1.12196
C         54.90556        24.64308        -1.64182
C         53.62924        25.36095        -1.42912
C         55.05386        27.41840        -0.79539
C         53.68159        26.79286        -0.97477
C         54.97429        28.92069        -0.77319
C         53.86493        29.53356        -0.23339
C         55.11683        31.64786         0.02894
C         53.86721        30.94028         0.07626
C         55.19053        33.00748         0.68405
C         53.89348        33.77984         0.56030
C         55.13068        35.96535         0.30453
C         53.88514        35.18254         0.65237
C         55.16777        37.39390         0.80586
C         53.90834        38.10424         0.98859
C         55.11968        40.25573         1.01524
C         53.87591        39.46864         1.12946
C         55.12492        41.63504         1.59649
C         53.81736        42.37711         1.78067
C         55.01519        44.56186         1.47194
C         53.82758        43.86365         1.59906
C         54.99490        46.04881         1.16677
C         53.80905        46.76799         1.84778
C         54.96468        48.94203         1.27615
C         53.78800        48.23656         1.40672
C         54.96895        50.33330         0.87545
C         53.83308        51.04607         0.70046
C         57.23340        24.82336        -2.52772
C         56.05489        25.39551        -1.99760
C         57.27163        27.67874        -2.10881
C         56.00563        26.86798        -1.84658
C         57.39741        29.02639        -1.53161
C         56.11327        29.78023        -1.27178
C         57.57194        31.65512        -0.26199
C         56.25513        31.01441        -0.41446
C         57.60175        33.10580         0.00439
C         56.42971        33.78734         0.28344
C         57.66264        35.90928         0.39041
C         56.43262        35.20720         0.43130
C         57.66400        37.34382         0.74185
C         56.37003        38.06210         0.79518
C         57.70604        40.24974         0.90838
C         56.41835        39.53041         0.84851
C         57.76820        41.75021         1.15510
C         56.42639        42.39490         1.55632
C         57.59390        44.60163         1.06379
C         56.34462        43.89225         1.52672
C         57.58650        46.10194         1.10083
C         56.30332        46.77750         1.49187
C         57.52707        48.95544         0.97712
C         56.28898        48.27074         1.44755
C         58.39543        25.56491        -2.75752
C         59.72352        27.63722        -2.42142
C         58.48546        26.93951        -2.47380
C         59.79641        28.93422        -1.95874
C         58.63046        29.64147        -1.50405
C         59.80585        31.93686        -1.42608
C         58.77709        31.00592        -0.90528
C         59.85324        33.22719        -1.05262
C         58.96520        33.76336         0.05560
C         60.07105        36.04411        -0.07036
C         58.89092        35.27025         0.13405
C         60.09132        37.41375         0.00598
C         58.95495        38.14864         0.56379
C         59.98080        40.46604         0.07340
C         58.86287        39.63477         0.52187
C         59.78706        41.75553        -0.27172
C         58.43921        42.43344        -0.06395
C         59.47417        44.70493        -0.51102
C         58.55491        43.93700         0.15154
C         59.50574        46.13919        -0.42926
C         58.56060        46.84096         0.27547
C         58.53357        48.28949         0.36576
O         43.30781        24.96210        -0.87203
O         37.65561        35.83600        -1.80892
O         26.65521        46.48327        -0.75190
O         34.48138        22.35450        -2.10694
O         40.43783        49.52416         1.49825
O         36.39223        30.27992         1.24962
O         31.40472        46.16119         0.57984
O         56.13280        27.60923        -3.08152
O         39.29372        22.28933         1.11437
O         28.91113        25.75382        -2.10872
O         37.01068        53.35701         1.06715
O         58.53254        37.63766         1.88282
O         42.11665        44.17254        -2.16565
O         32.17682        41.84441        -2.69841
O         56.40161        47.53421         2.71856
O         32.05445        44.31407        -2.79854
O         33.99090        34.56501        -2.39135
O         52.64228        28.94852         1.73668
O         49.42130        35.34817         2.27656
O         23.92327        38.51414        -0.43437
O         43.32917        28.97521         2.73827
O         43.61515        48.36625         1.22886
O         42.22751        35.73499         2.12547
O         35.54022        37.02738        -2.09678
O         47.11640        20.71680         1.96501
O         45.71836        48.50284        -1.91793
O         42.01008        50.39618        -1.49575
O         54.54175        41.79851         2.92102
O         31.00765        35.56621        -2.07868
O         35.93531        38.83390         1.17151
O         58.22461        45.33194         2.16812
O         39.80250        37.65576        -0.93626
O         53.39064        26.47433        -2.36908
O         27.95514        48.71889        -0.98132
O         39.84507        53.26652         1.09443
O         52.01399        23.75889        -2.29441
O         46.31929        30.26804         2.67388
O         38.26285        32.05490        -1.45864
O         45.95340        39.64437        -1.23282
O         52.28623        49.95609         2.33177
O         56.57766        43.16879         2.78167
O         58.60221        30.92696         0.55845
O         48.43878        29.00652         2.66736
O         37.70354        49.46285         1.37932
O         41.14443        25.62976         1.97551
O         40.25842        27.03134        -1.22393
O         55.68407        40.16001        -0.33220
O         41.31097        31.31332         2.93071
O         35.74067        20.11829        -1.77143
O         51.48354        46.44063         2.59046
O         41.63753        38.91283         1.90386
O         25.03666        30.97693         2.06655
O         30.12897        49.91416        -1.93812
O         44.49578        37.82080         1.99455
O         44.81268        50.70903         1.02546
O         44.96019        18.26231        -1.12768
O         47.74358        23.58402         1.95621
O         49.48710        33.55143        -0.85904
O         39.73952        18.21564        -1.85822
O         26.71987        44.93788         2.42856
O         49.71950        46.54005        -1.59793
H         49.21308        47.14164        -2.19885
O         48.22523        48.10175         1.41195
H         48.86453        47.84043         2.10878
O         28.66420        42.50532        -2.62437
H         28.25212        41.63527        -2.87258
O         37.95643        27.75739        -2.12735
H         38.91471        27.76851        -2.36483
O         38.94529        47.14787        -2.23337
H         39.81971        47.49147        -2.51481
O         57.59988        42.21845        -1.22396
H         58.08571        42.52113        -2.01868
O         59.58183        33.33911         1.31770
H         59.49125        32.35345         1.35198
O         33.79246        29.60589         1.31645
H         34.63662        29.92913         1.72038
O         43.83176        33.51298        -1.14111
H         44.61665        33.94596        -1.53921
O         39.28767        21.01137        -2.35852
H         39.34710        20.10951        -2.75015
O         40.04018        40.93561         1.98903
H         40.35218        40.21462         2.58274
O         29.80243        33.90299         1.45016
H         29.25515        34.59208         1.90501
O         40.62170        28.98777         2.77849
H         40.80231        29.78693         3.36944
O         49.97232        31.05534        -1.06044
H         49.60636        31.83420        -1.54749
O         30.09997        31.71281        -2.52847
H         30.98606        31.71019        -2.96295
O         54.84607        46.19237        -0.27730
H         54.12044        45.60636        -0.58061
O         24.47832        33.47162         2.93296
H         24.59075        32.49460         3.04715
O         28.40678        34.96809        -1.81186
H         29.10983        34.83539        -2.48842
O         27.32787        40.15764        -2.33910
H         27.82297        39.42060        -2.76076
O         45.26693        44.49383         1.23446
H         44.79287        45.29726         1.53921
O         55.70651        30.27371        -2.60197
H         55.60041        29.46735        -3.16565
O         31.54101        25.01047        -2.56388
H         30.63064        25.28570        -2.83815
O         55.34096        32.78672         2.12408
H         56.18334        32.30574         2.27007
O         37.44620        40.84404         1.80643
H         36.92564        40.13145         2.24036
O         37.83678        44.76846        -2.60609
H         38.37209        45.57591        -2.80462
O         52.07503        41.27336         3.03528
H         52.89085        41.20426         3.58475
O         42.57424        19.88858         1.94844
H         42.45942        20.78821         2.32306
O         46.87335        43.72324        -2.00494
H         46.41394        42.94493        -2.38998
O         28.64005        36.20667         1.65169
H         27.95823        36.73675         2.14077
O         48.18239        37.44723        -1.12146
H         47.58137        38.06632        -1.59082
O         49.47471        52.36200        -2.31135
H         50.30812        51.84814        -2.37198
O         30.19466        28.85580        -2.59486
H         31.01045        28.49287        -2.99997
O         33.16509        35.71566         0.95555
H         32.42706        36.10169         1.47321
O         44.43225        43.37690        -2.19259
H         44.27588        44.15775        -2.76503
O         54.98652        36.13434        -1.16499
H         55.70446        36.72831        -1.47297
O         43.54387        42.62053         1.29412
H         44.26025        43.12786         1.74903
O         39.97913        35.08714        -1.25462
H         39.35214        35.13146        -2.01972
O         58.68211        41.92217         2.25381
H         58.27230        42.56179         2.88768
O         54.03773        46.72725         3.26285
H         53.20208        46.99423         3.70436
O         37.95150        45.57162         0.97055
H         37.95004        46.39347         1.50703
O         42.74130        37.28366        -1.17537
H         42.63843        38.17814        -1.56534
O         48.31576        37.91285         2.48306
H         49.02507        38.10730         3.13063
O         30.15093        40.03698        -2.86584
H         30.88297        40.58354        -3.25135
O         55.59134        26.97652         0.48699
H         55.09342        27.42787         1.20238
O         39.70462        33.29281         2.47037
H         40.28147        32.63973         2.98369
O         49.67051        28.12630        -1.09879
H         49.72025        27.46969        -1.82475
O         26.20441        37.63166         2.32299
H         25.59902        37.16688         2.94201
O         52.78786        40.74867        -0.49628
H         53.05671        39.98602        -1.05122
O         37.49967        36.95538         1.68905
H         37.04063        37.68606         2.16275
O         32.98530        31.53354        -2.65914
H         33.54199        32.28619        -2.96170
O         35.21682        24.81078        -2.64751
H         34.66171        24.10199        -3.04824
O         32.80576        46.69392        -2.84096
H         32.37580        46.00785        -3.40583
O         41.70932        16.27327        -2.15631
H         40.98065        16.83278        -2.51654
O         50.54486        27.84440         2.37967
H         50.54276        28.45263         3.14777
O         46.65602        22.24714        -1.31342
H         45.83907        21.86583        -1.69979
O         34.48600        24.92350         0.92995
H         33.87753        25.46504         1.47589
O         39.61250        35.94601         2.26322
H         40.36630        35.79621         2.87506
O         42.94050        41.19673        -1.99709
H         43.21096        42.01364        -2.48435
O         52.67807        37.22466         2.77046
H         51.94420        36.63565         3.04984
O         48.40246        48.70338        -2.19514
H         47.63133        48.89894        -2.77482
H         22.02433        26.89623        -0.00702
H         22.08961        29.34077         0.36118
H         22.20485        31.35134         0.23984
H         22.32380        33.71957         0.79310
H         22.55885        35.40168         2.30204
H         22.33593        37.83077         1.90535
H         22.15364        39.81621         1.22230
H         22.43849        42.17555         1.78873
H         22.86305        43.76014         2.77773
H         23.07660        46.10116         3.45396
H         25.29202        23.44263        -0.32121
H         23.19415        24.73609        -0.21605
H         26.15790        49.66256         2.52371
H         24.35028        48.28807         3.44659
H         26.98683        22.58781         0.45664
H         27.47444        50.97489         1.46261
H         29.12174        21.42043         0.58400
H         29.46405        51.93153         0.70701
H         32.95989        19.33212         0.79617
H         30.83911        20.53715         0.78305
H         32.80544        54.24371        -0.66231
H         30.67991        53.01572        -0.46668
H         34.67388        18.33389         0.84027
H         34.45420        55.02536        -1.49114
H         36.75200        17.08923         0.60382
H         36.56579        56.18236        -1.74918
H         40.41942        14.75706         0.06404
H         38.32119        15.96769         0.19431
H         40.32921        58.24686        -2.41281
H         38.19293        57.12012        -1.97359
H         42.82453        14.64890        -0.03431
H         42.80638        58.25289        -2.37397
H         44.87766        15.83890         0.57606
H         44.92651        57.10906        -1.91545
H         48.71875        18.13453         1.00417
H         46.66544        16.89065         0.65526
H         48.65589        55.06920        -1.28012
H         46.53329        56.25624        -1.48541
H         50.31281        19.14807         0.15700
H         50.17933        54.27334        -0.16912
H         52.28311        20.41544        -0.58235
H         52.11348        53.08381         0.73236
H         55.89903        22.71196        -1.49557
H         53.93953        21.43106        -0.88500
H         55.92880        50.81681         0.65458
H         53.88065        52.06131         0.28155
H         57.25540        23.74377        -2.73270
H         57.61088        50.04550         1.09186
H         59.30052        25.03894        -3.09515
H         60.64095        27.11299        -2.72600
H         60.77319        29.43472        -1.90677
H         60.47778        31.56975        -2.21675
H         60.60796        33.88769        -1.50475
H         60.98968        35.52504        -0.37854
H         60.98863        37.96326        -0.31135
H         60.96482        40.00016        -0.08285
H         60.61968        42.33037        -0.70333
H         60.21017        44.22726        -1.17453
H         60.27590        46.67814        -0.99971
H         59.39972        48.84381        -0.02665
