         576
 CSIRO Nanostructure Databank - Neutral Graphene Oxide Data Set
C          5.83624        19.02509        -0.03343
C          5.84424        20.40856        -0.26369
C          4.62249        21.17229        -0.13361
C          5.84218        23.30817        -0.05864
C          4.61846        22.53765        -0.04742
C          5.86740        24.70616        -0.00845
C          8.26851        14.64989         0.26771
C          8.21451        16.03066         0.27090
C          6.99489        16.81069         0.18266
C          8.28331        18.84864         0.60268
C          6.99312        18.20288         0.19778
C          8.24162        20.64641        -1.06305
C          7.04695        21.18918        -0.50380
C          8.30921        23.28628        -0.20671
C          7.06768        22.57915        -0.21978
C          8.30602        24.69646        -0.14976
C          7.09240        25.43585        -0.10363
C          8.32410        27.60833        -0.26255
C          7.13334        26.86580        -0.13837
C          8.36386        29.01383        -0.23464
C         10.83647        10.44761        -0.62970
C         10.77112        11.75553        -0.17021
C          9.55510        12.49348        -0.00851
C         10.73822        14.60935         0.29335
C          9.52742        13.90399         0.20436
C         10.79717        16.10089         0.39583
C          9.49007        16.76335         0.01009
C         10.83114        19.04272        -0.01963
C          9.51143        18.26676        -0.02678
C         10.76593        20.38587        -0.89593
C          9.51226        21.22468        -0.71578
C         10.81906        23.17005         0.21292
C          9.53857        22.54403        -0.28939
C         10.83837        24.70832         0.11213
C          9.58804        25.40125        -0.32792
C         10.88408        27.64207        -0.25273
C          9.61249        26.89632        -0.43754
C         10.86123        29.04297        -0.24481
C          9.58732        29.74552        -0.28293
C         10.81100        31.88246        -0.34317
C          9.59424        31.14301        -0.35488
C         10.82354        33.27538        -0.51801
C         13.28909         6.10612        -0.98202
C         13.22605         7.53959        -0.73096
C         12.12840         8.27590        -1.02828
C         13.34859        10.36120        -0.36403
C         12.13537         9.78359        -1.06871
C         13.36299        11.86635        -0.25996
C         12.03589        12.42713         0.22372
C         13.28471        14.66107         0.30586
C         12.01068        13.91537         0.46448
C         13.28803        15.94727        -0.14103
C         12.00530        16.69255        -0.32722
C         13.29190        18.89934        -0.78712
C         11.99340        18.17584        -0.56192
C         13.31532        20.40324        -0.78232
C         12.04223        21.17404        -0.62432
C         13.35320        23.28515        -0.54749
C         12.05404        22.50918        -0.36890
C         13.38258        24.75583        -0.13479
C         12.11018        25.48849        -0.00361
C         13.34255        27.66082        -0.26668
C         12.12484        26.95726        -0.25728
C         13.34999        29.07856        -0.18551
C         12.09245        29.76749        -0.17995
C         13.27625        31.91428        -0.05167
C         12.06429        31.18789        -0.18821
C         13.25485        33.33664        -0.11453
C         12.03348        34.00743        -0.45408
C         13.27332        36.10267        -0.67098
C         12.07741        35.38766        -0.77064
C         13.37227        37.45105        -1.20818
C         15.75408         6.15630        -1.02716
C         14.48318         5.46165        -1.10592
C         15.67933         7.67872        -1.08485
C         14.49181         8.12229        -0.13045
C         15.50955        10.28179         0.82015
C         14.40543         9.62518         0.05773
C         15.70937        11.75218         0.64389
C         14.55778        12.46642         0.43991
C         15.84094        14.58372         0.57593
C         14.51228        13.92885         0.81774
C         15.84474        15.96150         0.02803
C         14.57923        16.63632        -0.41899
C         15.88565        18.90346        -0.45821
C         14.60209        18.13186        -0.67550
C         15.83601        20.33430        -0.16649
C         14.55841        21.03749        -0.22728
C         15.78613        23.26009         0.26212
C         14.50859        22.50620         0.04356
C         15.81608        24.68513        -0.18424
C         14.55461        25.45154        -0.15799
C         15.92704        27.67365        -0.22071
C         14.62936        26.92700        -0.55535
C         15.87911        29.12429        -0.06781
C         14.58626        29.80981        -0.05107
C         15.68817        32.01289         0.42690
C         14.52579        31.22139         0.09580
C         15.63065        33.39933         0.55750
C         14.43929        34.10082         0.13894
C         15.56366        36.41097         0.28204
C         14.43243        35.48690        -0.11999
C         15.76877        37.53975        -0.70378
C         14.56721        38.08656        -1.30880
C         18.20739         6.11954        -0.74256
C         16.93547         5.46019        -0.94401
C         18.14535         7.55825        -0.59594
C         17.02364         8.32253        -0.79041
C         18.18817        10.38333         0.14487
C         17.18744         9.82952        -0.84225
C         18.22161        11.74944         0.69616
C         17.00331        12.42713         0.84370
C         18.29252        14.57448         1.18680
C         16.99671        13.88044         0.81812
C         18.26717        16.05503         0.82579
C         17.04941        16.77435         0.34277
C         18.18862        18.95606         0.69811
C         17.22436        18.19341        -0.22820
C         18.34270        20.39100         0.30573
C         17.13505        21.10521        -0.23397
C         18.35491        23.27473         0.34749
C         17.07339        22.52393         0.28645
C         18.33750        24.70715         0.32835
C         17.11388        25.41174        -0.15523
C         18.43140        27.41430        -0.30606
C         17.10168        26.89961        -0.19045
C         18.36948        29.47267         0.02718
C         17.02067        29.92850         0.20361
C         18.09464        31.97351         1.03978
C         16.95134        31.32096         0.60885
C         18.12070        33.43966         1.43964
C         16.82219        34.17677         1.01130
C         18.18417        36.32130         0.53707
C         16.84053        35.65433         0.71619
C         18.20547        37.66279        -0.19955
C         16.96697        38.16301        -0.82570
C         20.70056         6.10662        -0.43458
C         19.43763         5.46683        -0.71243
C         20.65702         7.52135         0.13226
C         19.43090         8.31384        -0.39703
C         20.99465        10.38277         1.11231
C         19.12226         9.46709         0.50546
C         20.83576        11.77764         0.94581
C         19.54435        12.43581         0.84473
C         20.80950        14.60787         0.78878
C         19.57518        13.84446         0.86088
C         20.79685        16.02683         0.75607
C         19.53803        16.75148         0.40691
C         20.70760        18.91779         0.84052
C         19.51256        18.22209         0.72854
C         20.70191        20.36555         0.95731
C         19.49675        21.08965         0.63645
C         20.68597        23.23441         1.16341
C         19.49533        22.54539         0.65759
C         20.69806        24.76598         1.11568
C         19.49522        25.43696         0.60242
C         20.80501        27.60085         0.46415
C         19.57179        26.82203         0.24483
C         20.72748        29.13268         0.76972
C         19.44782        29.86724         0.81288
C         20.63993        32.01253         1.53859
C         19.30803        31.21382         1.39015
C         20.61562        33.40714         1.06450
C         19.43191        34.11273         0.95805
C         20.61103        36.10851         0.08588
C         19.43213        35.50650         0.49944
C         20.66954        37.45700        -0.47742
C         19.46981        38.13671        -0.73712
C         23.18457         6.02470        -0.15023
C         21.89929         5.41621        -0.44103
C         23.18857         7.46342         0.34587
C         21.99368         8.30456        -0.13060
C         23.33106        10.37267         0.46615
C         22.09119         9.68292         0.56904
C         23.50434        11.79932         1.01458
C         22.10262        12.55870         1.22438
C         23.25420        14.67609         0.35144
C         22.07520        13.96426         0.71665
C         23.20438        16.08931         0.32677
C         21.99235        16.76367         0.62114
C         23.19154        18.90310         0.83894
C         21.96392        18.20740         0.72868
C         23.16946        20.28920         1.35074
C         21.91245        21.07376         1.20163
C         23.20163        23.21609         1.22040
C         21.93447        22.46334         1.25684
C         23.22955        24.71462         1.09535
C         21.97939        25.50821         1.09166
C         23.22926        27.63317         1.23929
C         22.01397        26.87592         0.94435
C         23.22821        29.00185         1.34933
C         21.93207        29.73823         1.42117
C         23.23628        31.84998         1.07545
C         21.93447        31.24070         1.56714
C         23.21676        33.34840         0.90786
C         21.89448        33.91614         0.40128
C         23.19307        36.07827        -0.01408
C         21.90394        35.42447         0.34804
C         23.11490        37.18570        -1.03968
C         21.89235        38.02695        -0.88247
C         25.74241         5.93087        -0.37327
C         24.35749         5.31495        -0.20876
C         25.68691         7.45984        -0.33279
C         24.42733         8.20990        -0.10911
C         25.73576        10.38064        -0.05280
C         24.48814         9.67281         0.14878
C         25.72982        11.82551        -0.10944
C         24.53635        12.56417         0.17693
C         25.63881        14.67968        -0.57494
C         24.46783        13.94678        -0.00998
C         25.60574        16.23843        -0.52082
C         24.30158        16.97377        -0.22068
C         25.65857        18.96740         0.69176
C         24.41234        18.27123         0.56416
C         25.72080        20.34971         1.03651
C         24.48014        21.01157         1.47556
C         25.73929        23.26375         1.40979
C         24.47112        22.50618         1.57568
C         25.67975        24.74550         1.32484
C         24.51144        25.42419         1.31466
C         25.72705        27.60217         1.17050
C         24.46857        26.88328         1.70688
C         25.74902        29.08039         1.47536
C         24.45099        29.71471         1.94340
C         25.72700        32.02390         1.82454
C         24.43911        31.25735         1.79158
C         25.70449        33.56243         1.41512
C         24.41349        33.99658         0.70997
C         25.61047        35.84550        -0.46029
C         24.45843        35.30160         0.05056
C         25.59879        37.16708        -1.09972
C         24.42889        37.87331        -1.24798
C         28.14179         6.03994         0.34173
C         26.92791         5.39596         0.42060
C         28.17967         7.39516        -0.28895
C         26.94569         8.19934         0.06473
C         28.14026        10.35570        -0.65328
C         26.90712         9.66176        -0.28395
C         28.17572        11.82160        -0.54546
C         26.95758        12.51930        -0.36659
C         28.11896        14.47677        -1.10790
C         26.92887        13.92865        -0.62246
C         28.05825        16.52654        -0.77042
C         26.85796        16.98685        -0.26026
C         28.08387        19.01553         0.38877
C         26.86999        18.28324         0.37814
C         28.08433        20.41830         0.46013
C         26.91039        21.10336         0.83720
C         28.11026        23.28601         0.69175
C         26.97064        22.55933         0.97884
C         28.03795        24.81199         0.61837
C         27.02215        25.36291         1.62130
C         28.27397        27.63372         1.49759
C         26.98807        26.89861         1.64697
C         28.23467        29.10966         1.33590
C         26.95216        29.78911         1.47260
C         28.23009        31.79446         1.96548
C         26.98034        31.19697         1.80113
C         28.14943        33.87789         1.30615
C         26.95885        34.07185         0.69592
C         28.15347        35.89675        -0.58117
C         26.89488        35.03608        -0.46782
C         28.06490        37.12691        -1.36281
C         26.84514        37.72579        -1.57922
C         30.61928         6.16482         0.59041
C         29.40780         5.49447         0.75343
C         30.71242         7.50289         0.02863
C         29.47682         8.10640        -0.52372
C         30.72107        10.36079        -0.74358
C         29.43286         9.59193        -0.80507
C         30.67574        11.82772        -0.60909
C         29.42192        12.50880        -0.66077
C         30.62437        14.68432        -0.69171
C         29.41627        13.92275        -0.84305
C         30.63768        16.22363        -0.80478
C         29.36874        16.88561        -0.24623
C         30.60748        19.06720         0.20765
C         29.36281        18.29936         0.31634
C         30.57434        20.41377         0.08383
C         29.27387        21.16394        -0.08847
C         30.51717        23.32346         0.15212
C         29.34826        22.62199         0.31831
C         30.52049        24.80601         0.15367
C         29.36850        25.52816         0.72426
C         30.69840        27.60556         0.85000
C         29.46723        26.85872         1.05504
C         30.72118        28.98873         1.49041
C         29.43649        29.82016         1.27571
C         30.63224        32.03444         1.02961
C         29.44950        31.22869         1.49642
C         30.71482        33.55160         0.91679
C         29.44965        34.38829         0.85800
C         30.65353        36.26153        -0.32413
C         29.36398        35.52548        -0.07001
C         30.52586        37.25033        -1.45732
C         29.29690        37.70519        -1.85363
C         33.03353         6.23875         1.03301
C         31.85202         5.55827         1.04012
C         33.10430         7.61895         0.61265
C         31.89401         8.22302         0.09943
C         33.13932        10.46441         0.05033
C         31.98637         9.63636        -0.35469
C         33.10455        11.85605        -0.08365
C         31.85880        12.55930        -0.40754
C         33.00754        14.71761         0.16559
C         31.80617        13.99317        -0.39686
C         33.05567        16.20123        -0.08861
C         31.87388        16.88012        -0.20261
C         33.11820        19.06397         0.06395
C         31.87355        18.28071         0.38470
C         33.09698        20.42641        -0.02359
C         31.82300        21.15455        -0.18324
C         33.09308        23.38010        -0.09877
C         31.79670        22.64914        -0.20238
C         33.09802        24.79257        -0.08409
C         31.81298        25.54778        -0.02621
C         33.05263        27.70364         0.06503
C         31.82771        26.96385         0.40957
C         33.09172        29.20410         0.29024
C         32.04118        29.82834         1.27897
C         33.22982        31.93601         0.55107
C         31.89883        31.25626         0.74047
C         33.25343        33.45444         0.48266
C         31.90536        34.09855         0.17368
C         33.03283        35.86220        -1.12422
C         31.85032        35.31424        -0.45340
C         32.92856        37.10431        -1.86029
C         31.74410        37.75208        -2.04183
C         34.28808         8.34114         0.67109
C         35.54716        10.45482         0.53447
C         34.35887         9.76376         0.42524
C         35.57165        11.94972         0.60371
C         34.31137        12.61645         0.11992
C         35.54471        14.74469         0.00092
C         34.32013        14.00252         0.01316
C         35.55304        16.16251        -0.03516
C         34.32554        16.90964         0.04579
C         35.58813        19.03547        -0.16371
C         34.35930        18.31649         0.02787
C         35.58971        20.46367        -0.17528
C         34.35146        21.20783         0.25034
C         35.53808        23.36510        -0.29359
C         34.31468        22.67322        -0.12701
C         35.54107        24.79131        -0.34996
C         34.32324        25.48118        -0.14978
C         35.60058        27.69159        -0.26561
C         34.31372        26.95702        -0.23588
C         35.62423        29.06082        -0.11106
C         34.49951        29.74784         0.65065
C         35.72555        31.99677         0.39407
C         34.40587        31.25397         0.47721
C         35.56551        33.26040        -0.40857
C         34.38291        33.93440        -0.40968
C         34.21944        35.16569        -1.13492
C         36.80660        12.63351         0.08906
C         38.01486        14.74443        -0.29270
C         36.80432        14.01449        -0.08000
C         38.04201        16.14692        -0.35399
C         36.78649        16.87903        -0.22187
C         38.03735        18.98205        -0.66137
C         36.78479        18.27547        -0.33649
C         38.01198        20.47808        -0.67126
C         36.76109        21.20586        -0.37965
C         38.00330        23.32333        -0.69443
C         36.78141        22.62685        -0.42636
C         37.96059        24.77608        -1.11470
C         36.75813        25.53328        -0.60200
C         38.04485        27.65647        -0.70281
C         36.79132        26.92564        -0.55849
C         38.05374        29.03746        -0.60104
C         36.86455        29.79572        -0.27558
C         36.89058        31.16164        -0.08918
C         39.27056        16.84743        -0.49364
C         40.52461        18.98129        -0.65454
C         39.33592        18.26199        -0.55944
C         40.57378        20.44490        -0.47676
C         39.27644        21.21914        -0.40661
C         40.48256        23.36963        -0.84245
C         39.23576        22.66795        -0.67713
C         40.48338        24.76055        -0.91393
C         39.26738        25.51367        -0.89769
C         39.26466        26.89382        -0.83591
C         41.76749        21.24529        -0.81786
C         41.71313        22.59765        -0.93009
O          9.68199        26.03783        -1.65119
O         31.64564         9.87268        -1.77237
O         15.41691        18.48728        -1.82622
O         39.95609        20.84760         0.83145
O         23.30403        23.86211        -0.12355
O         37.97076        19.74439        -1.93972
O         30.58008        28.67248         2.85021
O         28.23708        33.09621         2.46619
O         20.45691        24.05407         2.37856
O         17.40031        16.74044         1.76355
O         25.45003        15.51219        -1.77510
O         18.25344        37.56260         1.28812
O          8.37911        19.64225         1.53714
O         16.58584        24.84022        -1.43655
O         19.83903        31.61755         2.67480
O         33.42515        27.39317        -1.34496
O         20.55915         7.32454         1.51411
O         28.05645        15.66173        -1.85822
O         30.38413        34.45022         2.00851
O         14.15947        21.63898         1.13408
O         28.76822         7.39084        -1.60306
O         12.02696        12.92020         1.58901
O         21.92297        30.37866         2.73534
O         18.58673        28.59180        -1.03596
O         30.95948        31.49303        -0.32823
O         30.92937        25.31168        -1.18675
O         27.64699        27.37762         2.83149
O         11.73221        17.23723        -1.64634
O         24.94064         7.95624        -1.47582
O         11.43140        25.27382         1.32467
O          9.33889        17.49386        -1.24538
O         24.86353        31.88948         3.01914
O         16.56290        10.52751        -1.63821
O         15.44533        15.94438        -1.38981
O         25.67045        34.33265         2.57563
O         16.55740        35.17153         2.07231
O         25.20421        22.91563         2.76432
O         23.83416        20.40542         2.65442
O         13.34842        19.67830        -2.04364
O         16.37267        22.86421         1.53630
O         22.63873        36.22766         1.32787
O         24.11366        11.69849         2.26293
O         16.15630         9.65598         1.66455
O         31.72614        21.88821        -1.48421
O         19.90609         9.67357         1.62114
O         21.11555        28.60802        -0.54070
O         29.40050        17.11603         1.19450
O         28.67361         9.91219        -1.99285
O         21.76204        33.50382        -1.00082
H         22.07871        32.57054        -1.06931
O         10.74626        19.99362        -2.28832
H         11.65973        19.68586        -2.54170
O         11.01567        16.42100         1.80652
H         10.54697        15.76032         2.35877
O         24.42778        29.46205         3.37514
H         24.70890        30.31104         3.81088
O         18.28683        14.51853         2.64837
H         17.61673        15.17354         2.95390
O         26.07545         5.59031        -1.75414
H         25.58833         6.22734        -2.32573
O         17.86201        18.19877        -1.51816
H         17.20302        17.84539        -2.16236
O         14.67469        26.82121        -2.02268
H         15.43672        26.22729        -2.23916
O          8.15732        19.64464        -1.93572
H          9.05950        19.44534        -2.30886
O         29.04721        21.19567        -1.54105
H         29.87280        21.57547        -1.93600
O         23.18292         7.43535         1.77988
H         22.21747         7.29829         2.03357
O         14.37389        13.95489         2.27990
H         13.54129        13.46930         2.49892
O         35.59136        12.24582         2.07923
H         36.38093        11.79639         2.45090
O         32.56528        30.02482         2.60340
H         31.92450        29.52835         3.20737
O         30.94902        37.04123         0.87375
H         30.97936        36.40193         1.62468
O         18.14864        33.45276         2.88035
H         17.84572        34.34403         3.16924
O         19.58655        16.54549        -1.06080
H         20.20146        17.21023        -1.43974
O         13.49625        12.36779        -1.63931
H         14.38046        12.09120        -1.97065
O         15.26223         8.06950        -2.41033
H         15.93104         7.75848        -3.05391
O         19.73025         8.89372        -1.71363
H         18.89183         9.19005        -2.13077
O         12.21878        10.12682        -2.49025
H         12.48897        11.07652        -2.54228
O         34.41775        21.25615         1.73227
H         34.40445        20.33035         2.05991
O         22.86410        36.44377        -2.31048
H         22.89440        37.09577        -3.04287
O         26.85580        34.22136        -1.69004
H         26.80249        34.83663        -2.45211
O         14.68041         7.49730         1.14444
H         15.36226         8.01865         1.63881
O         31.96950        18.05856         1.83855
H         31.18777        17.51004         2.08718
O         27.53781        25.12171        -0.70809
H         28.24960        24.93837        -1.35811
O         32.75723        14.66993         1.62726
H         33.60758        14.84978         2.08316
O         23.78778        17.42778        -1.52288
H         24.07259        16.75278        -2.18367
O         32.77719        29.77894        -0.99844
H         33.03752        29.12169        -1.68674
O         34.94672        29.46869         2.00362
H         34.20762        29.71483         2.62140
O         27.44874        24.87950         2.90203
H         26.87855        25.28004         3.59213
O         24.48900        26.82881         3.14506
H         24.42869        27.74761         3.51250
O         11.17805        19.39876         1.31601
H         10.38864        19.80883         1.74455
O         17.56380        19.09727         2.01154
H         18.22573        19.47347         2.62873
O         23.33959        31.33424        -0.31427
H         24.11434        31.75932        -0.74408
O         22.25225         8.52847        -1.51644
H         21.45573         8.91351        -1.94875
O         13.61024        23.30803        -1.98210
H         12.98278        23.92494        -2.41394
O         37.78870        24.72406        -2.57991
H         37.70574        25.64828        -2.89856
O         30.68563        16.50673        -2.22783
H         30.91085        17.45084        -2.36149
O         33.57576        33.90484         1.83474
H         34.47138        33.54018         2.04799
O         21.95606        12.68655         2.66493
H         22.82687        12.32244         3.03549
O         36.04009        32.37944         1.78415
H         36.02038        31.54368         2.30438
O         10.84747        22.83102         1.62337
H         11.34669        23.54755         2.08372
O         17.39153        21.25335        -1.67872
H         17.52903        20.34594        -2.03975
O         25.72741        27.47011        -0.27611
H         24.83584        27.70191        -0.61397
O         15.07039        37.10667         1.46357
H         15.25089        36.52086         2.23471
O         26.97532         8.18438         1.53453
H         26.14545         8.58741         1.87422
H          4.85249        18.52925         0.01745
H          3.67299        20.62148        -0.05568
H          3.66475        23.07391         0.06740
H          4.91988        25.26195         0.05471
H          7.33322        14.07126         0.31090
H          6.04653        16.27164         0.02773
H          6.18318        27.41437        -0.04780
H          7.41965        29.57583        -0.16888
H          9.90179         9.94426        -0.92447
H          8.60171        11.96977        -0.17481
H          8.64106        31.68788        -0.42663
H          9.88207        33.80773        -0.71825
H         12.34735         5.55005        -1.10660
H         11.24962         7.77832        -1.46922
H         11.16893        35.88759        -1.13725
H         12.46575        37.90176        -1.63786
H         14.50302         4.37271        -1.26786
H         14.64371        39.05436        -1.82624
H         16.91350         4.35915        -0.96436
H         17.05731        39.04690        -1.47678
H         19.45225         4.38134        -0.90581
H         19.47694        39.04273        -1.36131
H         21.90149         4.35978        -0.75900
H         21.88516        39.04660        -1.29963
H         24.30006         4.24763        -0.48330
H         24.44519        38.86845        -1.71928
H         26.86811         4.38713         0.85786
H         26.80365        38.68727        -2.11280
H         29.42273         4.48962         1.20354
H         29.22856        38.50857        -2.60390
H         33.95409         5.75327         1.38852
H         31.81611         4.52214         1.40763
H         33.84238        37.48905        -2.33734
H         31.69205        38.64307        -2.68553
H         35.20557         7.83302         1.00469
H         36.47151         9.90996         0.78430
H         36.41921        33.63480        -0.99460
H         35.07985        35.56114        -1.69683
H         37.75912        12.08114         0.06315
H         38.95992        14.18558        -0.37080
H         39.00803        29.57862        -0.69554
H         37.84881        31.69320        -0.20605
H         40.20641        16.26819        -0.51379
H         41.47757        18.44019        -0.76303
H         41.44152        25.30293        -0.93544
H         40.22279        27.43653        -0.80546
H         42.72101        20.71900        -0.97551
H         42.63680        23.15395        -1.15126
