         620
 CSIRO Nanostructure Databank - Neutral Graphene Oxide Data Set
C         23.12139        27.47884         0.70140
C         23.07671        28.85618         0.69651
C         23.00712        31.80935         0.80279
C         22.98267        33.20835         0.58602
C         22.94216        36.14276         0.25451
C         22.95481        37.50739         0.06586
C         22.95539        40.39915        -0.26630
C         22.96007        41.77099        -0.34815
C         22.98110        44.70303        -0.58006
C         23.00495        46.07399        -0.64648
C         25.61655        24.72551         1.37208
C         24.42082        25.38582         1.03111
C         25.49164        27.57539         1.30802
C         24.33471        26.79798         1.01618
C         25.48846        28.98010         1.15970
C         24.24166        29.64318         0.91192
C         25.46209        31.81929         0.99694
C         24.19093        31.08412         0.90579
C         25.43667        33.32883         0.69805
C         24.13473        33.95978         0.42378
C         25.30159        36.02000        -0.34345
C         24.12487        35.37583         0.08436
C         25.33297        37.43833        -0.53818
C         24.13795        38.19428        -0.30180
C         25.35957        40.30904        -0.70093
C         24.14687        39.63266        -0.43142
C         25.36580        41.74818        -0.76972
C         24.16138        42.49214        -0.59442
C         25.41437        44.61296        -0.86493
C         24.18038        43.93081        -0.68337
C         25.45098        46.04797        -0.91285
C         24.23351        46.78000        -0.80819
C         25.46085        48.87109        -1.01267
C         24.26609        48.19658        -0.86158
C         28.07092        23.31607         2.07431
C         28.00850        24.79655         2.32854
C         26.74627        25.42536         1.76645
C         28.02979        27.64829         1.67785
C         26.69957        26.88686         1.76630
C         27.99317        29.02805         1.17434
C         26.74286        29.70282         1.09205
C         27.90646        31.78350         0.45329
C         26.73271        31.09819         0.80824
C         27.84426        33.18620         0.06361
C         26.65129        33.90757         0.11620
C         27.78035        35.87548        -1.09399
C         26.51904        35.20233        -0.57415
C         27.72926        37.36852        -1.49176
C         26.53903        38.12040        -0.89313
C         27.79422        40.21855        -1.17161
C         26.56629        39.53629        -0.91524
C         27.78360        41.67377        -1.33230
C         26.57610        42.45271        -1.02765
C         27.88601        44.57406        -1.05434
C         26.62596        43.86155        -1.01153
C         27.91848        45.99690        -1.07547
C         26.68398        46.75356        -1.05974
C         27.94666        48.89225        -1.30349
C         26.69496        48.17511        -1.11588
C         28.05170        50.27432        -1.35771
C         30.49099        23.30921         1.66647
C         29.21368        22.66033         1.75416
C         30.55989        24.76942         2.06329
C         29.26686        25.51410         1.85436
C         30.48719        27.55956         1.17588
C         29.27507        26.85591         1.56330
C         30.45784        28.94293         0.87030
C         29.19958        29.67888         0.85580
C         30.34885        31.69031         0.04092
C         29.16432        31.06105         0.43340
C         30.30303        33.06558        -0.45769
C         29.04847        33.85825        -0.37856
C         30.33623        35.88452        -1.03091
C         29.04768        35.18162        -0.78328
C         30.30650        37.37741        -1.28452
C         29.03454        38.10767        -1.28613
C         30.29509        40.24700        -1.15594
C         29.03517        39.50682        -1.25127
C         30.31539        41.61570        -0.97387
C         29.12226        42.41921        -1.23140
C         30.32946        44.56137        -0.82716
C         29.11276        43.87125        -0.97765
C         30.38514        45.96749        -0.98460
C         29.16240        46.66393        -1.14493
C         30.51912        48.81618        -1.44787
C         29.17997        48.10018        -1.46230
C         30.51572        50.28753        -1.37697
C         29.29923        50.95105        -1.43068
C         32.86221        20.49067         1.05646
C         31.69543        21.18669         1.20462
C         32.95646        23.28667         1.49458
C         31.68192        22.60112         1.45644
C         32.97329        24.73851         1.44281
C         31.76546        25.46306         1.48689
C         32.92501        27.50287         0.72245
C         31.72764        26.83893         1.13830
C         32.88946        28.90990         0.43106
C         31.67681        29.61069         0.53896
C         32.89803        31.73470        -0.16012
C         31.67623        31.11984         0.49623
C         32.88464        33.05414        -0.49951
C         31.59694        33.78177        -0.62916
C         32.88357        35.95594        -0.56117
C         31.54481        35.26206        -0.31685
C         32.82419        37.43238        -0.90632
C         31.55089        38.14185        -1.09212
C         32.80162        40.26211        -1.05195
C         31.55675        39.52486        -1.12223
C         32.82312        41.61425        -0.70510
C         31.54002        42.30276        -0.52201
C         32.84775        44.50913        -0.54406
C         31.55450        43.82179        -0.48226
C         32.86871        45.92903        -0.67582
C         31.66728        46.65609        -0.92467
C         32.95509        48.74962        -0.91334
C         31.74084        48.06734        -1.07115
C         33.00882        50.26254        -0.84517
C         31.80241        50.94217        -1.45771
C         33.20450        52.59478        -2.55767
C         31.93224        52.12674        -2.15752
C         35.37955        18.99887         0.93998
C         35.36228        20.42097         1.04475
C         34.13734        21.13839         1.15502
C         35.44393        23.22345         1.52538
C         34.14498        22.55042         1.37975
C         35.46992        24.75950         1.38742
C         34.18615        25.43279         1.16500
C         35.39887        27.42519         0.39731
C         34.15961        26.77855         0.74461
C         35.32173        28.78169        -0.19277
C         34.10296        29.59467         0.00801
C         35.34906        31.65782        -0.65463
C         34.12030        30.95421        -0.28762
C         35.36088        33.04723        -0.91449
C         34.04731        33.73503        -1.18326
C         35.31428        35.92819        -1.10624
C         34.10294        35.22105        -0.90771
C         35.30489        37.33741        -1.26676
C         34.05713        38.04502        -1.43414
C         35.32865        40.26837        -1.07667
C         34.05825        39.61217        -1.40790
C         35.29139        41.63900        -0.68000
C         34.04632        42.33592        -0.58534
C         35.28665        44.44788        -0.23699
C         34.04206        43.76427        -0.44249
C         35.30005        45.89069        -0.22023
C         34.11467        46.62098        -0.53602
C         35.40135        48.74801        -0.45191
C         34.15961        48.04224        -0.64933
C         35.53040        50.15232        -0.82127
C         34.36050        50.78458        -1.32222
C         36.37918        52.91839        -1.98615
C         34.35049        51.89545        -2.19758
C         36.55277        54.29390        -2.21711
C         37.82612        18.94861         0.88463
C         36.55323        18.29232         0.88307
C         37.86183        20.35760         0.94209
C         36.63291        21.11608         1.05844
C         37.97967        23.24213         1.43420
C         36.67815        22.49748         1.23904
C         37.93806        24.69465         0.97265
C         36.72816        25.40835         0.97002
C         37.88000        27.54340         0.40805
C         36.62561        26.77516         0.53365
C         37.89292        28.85464        -0.24236
C         36.60170        29.49525        -0.56476
C         37.79127        31.64533        -0.92632
C         36.58664        30.96567        -0.68581
C         37.82066        33.05539        -1.07316
C         36.57756        33.75902        -1.05884
C         37.79924        35.88651        -1.27710
C         36.58261        35.20159        -1.18882
C         37.82511        37.35604        -1.45639
C         36.53032        38.12112        -1.49590
C         37.76872        40.21168        -0.77884
C         36.54114        39.56511        -1.13221
C         37.74972        41.59019        -0.39420
C         36.51203        42.31136        -0.39059
C         37.68463        44.36038         0.40835
C         36.47140        43.70363        -0.08791
C         37.68893        45.87864         0.51754
C         36.48540        46.60681         0.06830
C         37.68901        48.73264         0.59075
C         36.52493        48.01161        -0.02806
C         37.81408        50.16537         0.14591
C         36.80661        50.82441        -0.59540
C         38.03649        52.97619        -0.24497
C         37.04896        52.22482        -0.95966
C         38.17615        54.39871        -0.41310
C         37.39809        55.03596        -1.40917
C         40.24476        16.05646         0.80875
C         39.06703        16.76830         0.88139
C         40.29169        18.88234         0.68600
C         39.05281        18.18992         0.81789
C         40.31557        20.31259         0.65113
C         39.11680        21.06000         0.84678
C         40.37783        23.15476         0.62704
C         39.16426        22.47568         0.89377
C         40.38587        24.61426         0.50253
C         39.18047        25.32673         0.64529
C         40.39314        27.45907        -0.04344
C         39.20522        26.79600         0.50787
C         40.35101        28.81113        -0.42963
C         39.07913        29.49046        -0.53873
C         40.32857        31.60876        -1.28995
C         39.02856        30.85819        -1.10571
C         40.31073        33.08274        -1.25943
C         39.07634        33.76618        -1.21634
C         40.28175        35.93839        -1.28930
C         39.06144        35.20218        -1.25649
C         40.24957        37.36703        -1.15397
C         39.05323        38.08646        -1.10380
C         40.21324        40.15699        -0.39572
C         39.01599        39.48980        -0.79945
C         40.16112        41.50173         0.06310
C         38.96427        42.24430         0.01774
C         40.14760        44.36831         0.58743
C         38.97207        43.65329         0.34511
C         40.18274        45.80984         0.65807
C         38.99584        46.56360         0.52426
C         40.20204        48.67447         0.73753
C         39.00712        47.98085         0.52501
C         40.15113        50.10806         1.00349
C         38.94848        50.84359         0.67922
C         39.71449        53.08331         1.47343
C         38.89667        52.28773         0.66031
C         39.98995        54.43870         1.22957
C         39.16546        55.14037         0.33872
C         40.24188        57.25215         1.00131
C         39.32181        56.58195         0.26025
C         42.71397        16.01047         0.54820
C         41.49203        16.72519         0.65777
C         42.75904        18.82977         0.42239
C         41.51185        18.14635         0.60131
C         42.75975        20.23819         0.32264
C         41.55820        20.99690         0.47709
C         42.88798        23.14315         0.51561
C         41.56837        22.42018         0.44855
C         42.83274        24.58216         0.06803
C         41.60435        25.29475         0.14532
C         42.78440        27.38130        -0.51759
C         41.59706        26.70848        -0.14180
C         42.81334        28.78729        -0.70344
C         41.57627        29.50580        -0.73612
C         42.79706        31.62049        -1.04944
C         41.58323        30.89567        -1.00292
C         42.77470        33.04869        -1.26780
C         41.56129        33.77744        -1.32022
C         42.75746        35.94565        -1.32419
C         41.55374        35.23784        -1.34766
C         42.79868        37.41574        -1.22602
C         41.49425        38.15490        -1.13447
C         42.69290        40.07862        -0.12717
C         41.48650        39.48900        -0.50913
C         42.66236        41.36901         0.59435
C         41.36064        42.10889         0.66945
C         42.68868        44.32744         0.91866
C         41.38541        43.61935         0.86789
C         42.66689        45.78601         0.96676
C         41.44114        46.49710         0.83399
C         42.66810        48.62262         1.00990
C         41.44342        47.93526         0.86191
C         42.66793        50.12248         0.86899
C         41.37673        50.72338         1.37178
C         42.58964        52.82573         1.88823
C         41.46203        51.99181         1.96325
C         42.48412        54.30531         1.86306
C         41.16502        55.06414         1.90943
C         42.54897        57.23416         2.08465
C         41.24893        56.55891         1.83277
C         43.91762        16.67533         0.37861
C         45.25142        18.78568         0.15633
C         43.98250        18.08606         0.30887
C         45.27589        20.18381        -0.05553
C         43.99367        20.90514        -0.11903
C         45.31576        23.08748        -0.23452
C         44.01174        22.39874        -0.17067
C         45.29045        24.49109        -0.36397
C         44.02891        25.19229        -0.33817
C         45.33145        27.36087        -0.85044
C         43.99258        26.59448        -0.75488
C         45.31830        28.81308        -0.66093
C         44.05954        29.51319        -0.76803
C         45.25827        31.69723        -0.63278
C         44.02476        30.92260        -0.87497
C         45.33001        33.10216        -1.10427
C         44.06014        33.72704        -1.48170
C         45.30133        35.98082        -1.18659
C         44.04791        35.28576        -1.51145
C         45.24585        37.36677        -0.81592
C         44.02018        38.08219        -0.74503
C         45.19931        40.14823        -0.03852
C         43.96765        39.42103        -0.28950
C         45.20830        41.53425         0.33557
C         43.94307        42.15208         0.78810
C         45.15376        44.30475         1.37130
C         43.87383        43.62815         0.94305
C         45.14621        45.80174         1.18227
C         43.90156        46.49477         1.09693
C         45.13229        48.64649         1.27481
C         43.89316        47.92995         1.12211
C         45.12523        50.09958         1.47203
C         43.90172        50.80444         1.41449
C         45.05865        52.92261         1.99969
C         43.85834        52.19426         1.69154
C         45.02105        54.32149         2.28143
C         43.77578        55.08775         1.99566
C         43.68935        56.54810         2.26812
C         47.69046        18.78412         0.10687
C         46.49461        18.10340         0.21967
C         47.73515        20.19217        -0.05949
C         46.50152        20.90027        -0.14364
C         47.76026        23.04421        -0.34775
C         46.51865        22.34581        -0.26384
C         47.76562        24.46444        -0.46421
C         46.53582        25.19504        -0.50359
C         47.78199        27.31904        -0.57736
C         46.56087        26.60916        -0.59252
C         47.78924        28.76040        -0.53742
C         46.54689        29.47207        -0.46732
C         47.80532        31.70337        -0.37193
C         46.51752        30.94464        -0.29799
C         47.78196        33.05077        -0.99468
C         46.53586        33.80028        -1.21586
C         47.72550        36.06621        -1.08468
C         46.52745        35.27500        -1.27384
C         47.67793        37.39621        -0.66370
C         46.44652        38.09274        -0.54914
C         47.70080        40.26490        -0.40384
C         46.42549        39.47553        -0.24106
C         47.68524        41.63124         0.22208
C         46.42440        42.27202         0.46436
C         47.62616        44.35311         0.97997
C         46.41751        43.64278         0.86344
C         47.63015        45.77316         1.24848
C         46.35858        46.50487         1.23441
C         47.60679        48.68872         1.37043
C         46.33486        47.93744         1.28592
C         47.58263        50.10362         1.83337
C         46.31104        50.79563         1.81781
C         47.46002        52.89055         2.51891
C         46.28486        52.20314         2.10050
C         47.37949        54.23331         2.87121
C         46.17869        54.94853         2.74109
C         50.23901        20.23562        -0.00336
C         48.99214        20.91055        -0.11844
C         50.24625        23.02958        -0.35471
C         49.00149        22.32133        -0.28134
C         50.25625        24.44428        -0.56902
C         49.00486        25.17381        -0.59661
C         50.22676        27.31330        -0.98507
C         48.99504        26.57967        -0.66730
C         50.26098        28.76909        -0.77505
C         49.05601        29.44077        -0.54680
C         50.33552        31.58519        -0.84895
C         49.09168        30.91266        -0.44031
C         50.29772        32.96018        -1.11552
C         49.00595        33.49659        -1.44773
C         50.22695        35.93307        -0.77718
C         49.04308        35.54967        -1.37212
C         50.17380        37.23056        -0.06493
C         48.90799        38.03054        -0.15873
C         50.15071        40.16174         0.04779
C         48.96409        39.50203        -0.09698
C         50.17167        41.59122         0.29570
C         48.89569        42.28655         0.45489
C         50.09670        44.35564         1.05177
C         48.88404        43.67598         0.82543
C         50.11228        45.74447         1.35151
C         48.84752        46.43052         1.42274
C         50.08083        48.56782         2.07896
C         48.87091        47.90702         1.50262
C         50.05955        50.05723         2.21430
C         48.74513        50.75640         2.14622
C         49.95625        52.90397         2.13142
C         48.76737        52.15643         2.69940
C         51.43499        20.91783        -0.02505
C         52.72611        23.04614        -0.23404
C         51.47947        22.32912        -0.19780
C         52.71862        24.41882        -0.55668
C         51.49422        25.11345        -0.70252
C         52.80219        27.30141        -0.91495
C         51.53026        26.54795        -1.03657
C         52.76302        28.75017        -0.96206
C         51.53664        29.44389        -0.86762
C         52.76607        31.61580        -1.02220
C         51.55382        30.87941        -0.89822
C         52.73411        33.05078        -1.03790
C         51.49579        33.75448        -1.11031
C         52.69731        35.83660        -0.61415
C         51.47821        35.18552        -0.89563
C         52.73466        37.22989        -0.11594
C         51.46507        37.96913         0.12629
C         52.70371        40.17507         0.22859
C         51.46213        39.44905        -0.21271
C         52.66860        41.53337         0.45243
C         51.38151        42.22569         0.53404
C         52.67178        44.38506         1.06357
C         51.36409        43.60665         1.04304
C         52.59411        45.85616         1.09119
C         51.35312        46.45774         1.42332
C         52.60078        48.72486         1.50785
C         51.37760        47.86836         1.84031
C         52.43606        50.19632         1.40609
C         51.27250        50.83500         1.86001
C         51.10161        52.27089         1.77934
C         55.14158        23.11820         0.24749
C         53.96669        22.43584         0.18716
C         55.28877        24.45591        -0.34138
C         53.99077        25.13789        -0.78114
C         55.30404        27.29609        -1.15136
C         53.98707        26.61244        -0.86788
C         55.24266        28.79605        -0.98273
C         54.00833        29.47981        -0.99885
C         55.23454        31.64686        -1.04459
C         54.00414        30.91590        -1.01937
C         55.21379        33.08518        -1.03895
C         53.96543        33.77243        -0.99785
C         55.16672        35.93598        -0.90508
C         53.94454        35.18412        -0.82455
C         55.11512        37.38590        -0.70309
C         53.97806        38.01201        -0.27182
C         55.21890        40.21133         0.02356
C         53.99629        39.39541         0.36742
C         55.16048        41.65077         0.20657
C         53.91784        42.30420         0.47244
C         55.01916        44.50245         0.23856
C         53.89249        43.71471         0.57082
C         54.94044        45.96010         0.26119
C         53.73556        46.62150         0.74833
C         54.71919        48.83651         0.23624
C         53.70985        48.05381         0.80007
C         54.59637        50.25242         0.23730
C         53.50860        50.90460         0.78071
C         57.61142        24.77778         0.59646
C         56.46985        25.31770        -0.03466
C         57.64779        27.45624        -0.25635
C         56.47096        26.67306        -0.41289
C         57.67945        28.82422        -0.68428
C         56.46843        29.51736        -0.93018
C         57.70110        31.69789        -0.97739
C         56.46676        30.95769        -1.00314
C         57.68217        33.12551        -1.04717
C         56.42269        33.83017        -1.07219
C         57.64761        35.98848        -1.54371
C         56.38151        35.26226        -1.10107
C         57.62687        37.50340        -1.28714
C         56.34578        38.18759        -0.90046
C         57.66349        40.26906        -0.31508
C         56.37171        39.56904        -0.35735
C         57.62715        41.79771        -0.15004
C         56.31056        42.43821        -0.03470
C         57.40350        44.60932        -0.48447
C         56.23396        43.85025        -0.11660
C         57.24075        46.05467        -0.65015
C         55.99930        46.70900        -0.21882
C         57.21211        48.87784         0.02875
C         55.92244        48.21020        -0.42728
C         58.74338        25.55788         0.82119
C         59.94423        27.73250         0.64072
C         58.78913        26.89047         0.38647
C         60.03705        28.97557         0.12442
C         59.01366        29.49847        -0.86122
C         60.13102        31.73894        -0.93170
C         58.94331        31.01031        -0.89676
C         60.11926        33.13545        -0.98098
C         58.91335        33.84950        -1.02063
C         60.02959        36.04424        -0.77507
C         58.90720        35.30797        -1.04926
C         60.04876        37.47568        -0.80083
C         58.90908        38.20911        -1.01373
C         59.99314        40.46101        -1.06670
C         58.88729        39.65685        -0.85846
C         59.94056        41.88030        -0.97256
C         58.79190        42.56763        -0.61530
C         59.84723        44.83730        -0.67309
C         58.66389        44.01488        -0.66607
C         59.79955        46.19193        -0.51763
C         58.54152        46.91555        -0.64313
C         58.40952        48.28801        -0.11273
O         48.49538        48.50593         0.19629
O         43.34794        41.35179         1.88911
O         52.17641        37.46231         1.28112
O         42.22516        38.09420        -2.41433
O         49.05541        34.55877        -2.36046
O         26.92416        35.09518        -1.99832
O         29.92284        48.35544        -2.71442
O         35.54759        24.10501         2.70746
O         33.97274        38.83632        -2.64183
O         30.92296        33.32369        -1.84097
O         37.46731        45.04677         1.70310
O         44.12353        34.48193        -2.72833
O         57.81434        46.62755        -1.88005
O         39.60966        31.00597        -2.44003
O         37.24515        37.79702        -2.74412
O         54.88953        24.50063        -1.76166
O         25.54945        32.81896         2.06602
O         40.80146        55.85915         3.07287
O         48.60300        31.50628         0.83714
O         35.81418        28.79785        -1.59427
O         52.14165        43.76633         2.28275
O         57.91345        40.91215         0.98130
O         52.37894        48.17163         2.84845
O         38.64872        27.51274         1.66526
O         28.50440        42.11955        -2.53133
O         49.31801        37.34231         1.11255
O         45.68177        31.47153         0.78302
O         50.02732        49.15987         3.41257
O         33.08780        36.98818         0.48638
O         35.53636        52.24600        -2.87269
O         31.38816        43.01273         0.75455
O         40.31591        52.50197         2.59627
O         44.62219        26.88495        -2.04300
O         43.71166        21.66814        -1.38724
O         50.81561        26.88624        -2.27484
O         27.33912        27.49738         2.96767
O         56.81788        38.18117        -2.31558
O         41.15368        42.68685         1.98834
O         30.50912        36.35393        -2.38262
O         43.23426        54.77024         0.66493
O         43.27073        23.15191         1.93408
H         42.55045        23.58920         2.43657
O         27.49479        37.40690        -2.93170
H         27.03694        36.56468        -3.16583
O         33.79837        33.58496        -2.62583
H         32.82562        33.54617        -2.77071
O         47.78699        40.50905        -1.86983
H         46.95323        40.94968        -2.14136
O         57.67501        35.81711        -2.99155
H         57.13292        36.55015        -3.36587
O         42.67571        50.39201        -0.58454
H         43.54613        50.10228        -0.93205
O         45.18789        44.10666         2.83423
H         44.89692        43.18653         3.01753
O         59.50204        29.09641        -2.19387
H         59.40873        28.12205        -2.25863
O         38.18830        23.29887         2.89160
H         37.35985        23.68833         3.26710
O         30.75758        24.76946         3.52616
H         29.86244        24.65062         3.93307
O         31.79522        31.53683         1.91193
H         31.05105        31.12903         2.40522
O         55.79181        48.45157        -1.85937
H         56.52641        47.94758        -2.28983
O         55.56376        27.05770        -2.58047
H         55.46553        26.08288        -2.71528
O         54.15205        39.15159         1.80495
H         53.40641        38.55688         2.07235
O         32.93358        50.59452         0.58825
H         33.73624        50.22692         1.01794
O         48.97771        52.04189         4.14368
H         49.62439        51.31861         4.29698
O         51.55939        39.42407        -1.68983
H         51.34990        40.32263        -2.02396
O         27.96735        24.97643         3.78896
H         27.77472        25.93813         3.93421
O         31.24651        35.34395         1.09734
H         31.79342        36.07839         1.46748
O         37.36471        48.80078         2.02697
H         37.32105        47.87958         2.36434
H         22.21697        26.89248         0.48689
H         22.12115        29.35402         0.48310
H         22.04245        31.28409         0.81246
H         21.99990        33.67787         0.44024
H         22.01423        35.65467         0.57946
H         22.02429        38.06286         0.23755
H         21.99971        39.89576        -0.07282
H         22.01214        42.30744        -0.21171
H         22.01472        44.19802        -0.45170
H         22.06949        46.64683        -0.56980
H         25.62086        23.62700         1.35814
H         23.53200        24.79255         0.77559
H         25.44920        49.96843        -1.05534
H         23.32337        48.75692        -0.78275
H         27.15012        22.73324         2.21493
H         27.14790        50.89638        -1.29708
H         29.15697        21.57360         1.59557
H         29.28512        52.05048        -1.43022
H         32.80935        19.41216         0.85914
H         30.74607        20.64092         1.12483
H         33.28422        53.43495        -3.25903
H         31.03777        52.62885        -2.55244
H         34.43406        18.44138         0.93002
H         35.99732        54.77109        -3.03459
H         36.50364        17.19785         0.81701
H         37.49845        56.11465        -1.58579
H         40.22967        14.95832         0.86072
H         38.12614        16.21514         1.00082
H         40.33264        58.34413         0.89498
H         38.64834        57.15746        -0.39004
H         42.69650        14.91195         0.59056
H         42.53706        58.32877         2.20306
H         44.83544        16.07948         0.28542
H         44.60944        57.09077         2.52774
H         48.62251        18.20703         0.16479
H         46.52128        17.01642         0.37213
H         48.26978        54.75312         3.25051
H         46.17241        56.01656         2.99634
H         50.26456        19.14452         0.11458
H         49.90742        54.00101         2.06551
H         52.36952        20.34874         0.06822
H         51.94513        52.88125         1.42696
H         56.00714        22.64734         0.73406
H         53.93593        21.41673         0.59704
H         55.37449        50.84870        -0.25906
H         53.46438        51.99852         0.69972
H         57.62127        23.72629         0.91256
H         57.15667        49.89403         0.44712
H         59.61698        25.12120         1.32568
H         60.74027        27.33570         1.28906
H         60.92734        29.58644         0.33376
H         61.09695        31.21575        -0.93175
H         61.07948        33.66733        -1.01125
H         60.96090        35.54094        -0.47990
H         60.99191        37.98680        -0.56281
H         60.92927        40.00620        -1.42123
H         60.83567        42.43821        -1.28153
H         60.82449        44.33701        -0.62723
H         60.71249        46.75725        -0.27938
H         59.32700        48.79457         0.22522
