         294
 CSIRO Nanostructure Databank - Neutral Graphene Oxide Data Set
C          1.27724         2.24653         0.75492
C          1.24391         3.68263         0.78231
C          2.40865         1.54950         1.02524
C          2.39880         4.44471         0.88636
C          1.26541         6.52424         0.19207
C          1.26781         7.86936        -0.10773
C          2.41681         5.86071         0.66692
C          2.45457         8.66561         0.00938
C          1.15418        10.75554        -0.53896
C          1.08103        12.05869        -0.93705
C          2.39560        10.06802        -0.33785
C          2.29316        12.87011        -1.26507
C          1.20509        14.78320         0.10176
C          1.18389        16.07402         0.56723
C          2.36214        14.18601        -0.49467
C          2.37070        16.96821         0.31788
C          2.47239        18.22814         1.14764
C          3.62712         2.27836         1.53243
C          3.71461         3.69350         0.90800
C          4.91747         1.53886         1.24700
C          4.91478         4.46126         1.45170
C          3.62910         6.67805         0.92260
C          3.65801         8.07580         0.42224
C          4.88961         5.98338         1.40612
C          4.86331         8.95838         0.76800
C          3.60098        10.81360        -0.49789
C          3.55218        12.10540        -0.97832
C          4.94535        10.27918        -0.04255
C          4.84027        12.83780        -1.20725
C          3.63875        14.80607        -0.24332
C          3.64105        16.15097         0.40597
C          4.84371        14.18593        -0.48208
C          4.92059        16.91382         0.52432
C          3.63606        18.90467         1.26787
C          4.89728        18.38204         0.73349
C          6.10239         2.17579         1.16395
C          6.18974         3.65529         1.36627
C          7.39083         1.37262         1.16236
C          7.46155         4.32540         1.02111
C          6.22694         6.68012         1.25914
C          6.19724         8.11365         0.74090
C          7.52793         5.80075         1.39526
C          7.26102         8.40356        -0.33617
C          6.10912        10.49917        -0.98976
C          6.03607        11.99265        -0.74440
C          7.29929         9.85418        -0.79340
C          7.33963        12.72839        -1.11410
C          6.15997        14.77072         0.01634
C          6.16756        16.29583         0.04707
C          7.29014        14.23116        -0.83453
C          7.26363        17.05250        -0.19811
C          6.00561        19.13080         0.50304
C          7.22233        18.59884        -0.23712
C          8.60778         2.12310         0.65555
C          8.56610         3.59154         0.65691
C          9.74193         1.40536         0.38852
C          9.89232         4.25636         0.49390
C          8.72838         6.53777         0.80290
C          8.62067         7.82579         0.05350
C          9.98786         5.73739         0.63291
C          9.82264         8.33364        -0.68049
C          8.62341        10.55363        -1.11528
C          8.60541        12.05428        -0.57369
C          9.84271         9.76414        -0.69485
C          9.84176        12.86679        -1.00412
C          8.53604        15.02545        -1.02371
C          8.57862        16.39381        -0.40470
C          9.82086        14.31701        -1.48651
C          9.83881        17.17389        -0.44898
C          8.55315        19.13652         0.24416
C          9.79277        18.71473        -0.51107
C         10.96588         2.00553        -0.20705
C         10.97560         3.50701        -0.22256
C         12.28099         1.29765        -0.30506
C         12.28878         4.19165        -0.44299
C         11.22275         6.52879         0.25106
C         11.01131         7.64124        -0.74532
C         12.42531         5.64310        -0.09365
C         12.23686         8.38401        -1.16709
C         11.08163        10.33482        -0.41895
C         11.07747        12.44080        -0.59956
C         12.31655         9.82700        -0.88589
C         12.37161        12.85341        -1.10314
C         11.09132        14.98116        -0.84399
C         11.09574        16.51947        -1.00485
C         12.40141        14.34335        -1.39855
C         12.31906        17.12892        -0.33765
C         11.12552        19.29562        -0.05616
C         12.32257        18.61252        -0.12737
C         13.47791         1.90753        -0.53943
C         13.53329         3.38647        -0.70321
C         14.79186         1.11611        -0.75298
C         14.87113         4.10929        -0.53702
C         13.63112         6.28979        -0.66626
C         13.57062         7.68820        -1.14739
C         14.81076         5.51400        -1.20217
C         14.79728         8.46171        -1.00817
C         13.50872        10.59098        -1.03875
C         13.51371        12.06884        -1.14193
C         14.75307         9.84951        -1.12347
C         14.79937        12.76513        -1.66820
C         13.65432        14.86286        -0.66549
C         13.59943        16.36309        -0.36001
C         14.88389        14.30150        -1.37221
C         14.83986        17.18838        -0.62305
C         13.58035        19.15809         0.31079
C         14.79534        18.45067         0.22738
C         16.09936         1.91875        -0.45198
C         16.05051         3.32329        -1.10678
C         17.39882         1.24287        -0.84835
C         17.29592         4.16845        -0.87920
C         16.05567         6.30749        -0.86885
C         16.01665         7.69846        -0.77192
C         17.27551         5.53872        -0.76609
C         17.18671         8.44884        -0.35562
C         16.06234        10.54642        -1.08590
C         16.11002        12.03578        -1.23448
C         17.17148         9.82034        -0.41157
C         17.27041        12.76045        -0.62584
C         16.18094        15.03101        -1.17674
C         16.12660        16.35222        -0.36693
C         17.42526        14.20655        -0.93405
C         17.35184        17.29393        -0.49987
C         15.96162        18.86925         0.88318
C         17.24950        18.28129         0.66364
C         18.56891         1.95990        -0.90765
C         18.62209         3.47722        -1.01339
C         19.86175         1.33305        -0.90671
C         19.63992         4.05879        -0.02580
C         18.56419         6.33876        -0.65494
C         18.35182         7.64466         0.17850
C         19.70599         5.55437        -0.10943
C         19.62024         8.42173         0.24730
C         18.28186        10.61234         0.13829
C         18.35531        12.07766        -0.11162
C         19.54611         9.84692         0.50142
C         19.50098        12.78079         0.46362
C         18.63706        14.96260        -0.39425
C         18.71694        16.51984        -0.69633
C         19.45966        14.20127         0.58959
C         19.89987        17.30767        -0.12236
C         18.35526        18.74358         1.33429
C         19.71685        18.42046         0.88217
C         21.02214         2.06171        -0.64059
C         20.99069         3.40897        -0.24036
C         22.16801         4.17021         0.03228
C         20.83309         6.22624         0.62131
C         20.96698         7.74012         0.27910
C         22.12671         5.47568         0.43311
C         21.86368         8.47031         1.26898
C         20.84267        10.62342         0.59283
C         20.58258        12.05305         1.04896
C         21.81605         9.80141         1.41972
C         21.45372        12.71583         1.91650
C         20.20109        14.76947         1.65414
C         21.26151        16.73617        -0.26784
C         21.19740        14.03372         2.30895
C         22.31386        17.21765         0.47153
C         20.87958        18.78223         1.70750
C         22.10169        18.22903         1.46970
O         12.87248        16.53707         0.89222
O         15.50604        15.03656        -2.46426
O          9.41393        16.57932         0.81642
O          8.94028         7.81751         1.48189
O         13.51946         6.08561         0.77889
O         16.54475        11.16209        -2.33774
O         18.56503        10.23967         1.54896
O         12.75544         3.93117        -1.82110
O          4.03135         6.57329         2.41353
O         10.55314         2.78881        -1.40659
O         11.11221        11.45941         0.39344
O          5.56067         4.01149         2.67010
O         12.85608         7.90066        -2.40443
O         18.63732        14.34048        -1.73095
O         10.33240         4.86322         1.76524
O          4.32881        16.18076         1.68894
O          6.52254         7.83392         2.11489
O          5.57168        11.52994         0.65109
O          7.49381        15.01025        -2.05433
O         19.85317        18.70453        -0.58918
O         21.36671        10.68605        -0.77101
H         22.15170        11.27326        -0.76991
O         11.16350        16.86939        -2.40309
H         11.85402        16.29152        -2.82656
O          6.99710        18.94292        -1.62573
H          7.88377        19.06969        -2.04983
O          8.49896        12.02357         0.84732
H          9.36146        11.72872         1.21827
O          4.04769         3.52116        -0.50805
H          3.30124         3.04203        -0.92819
O          9.89922        14.41257        -2.91644
H          8.97489        14.29546        -3.24471
O         19.90006        16.02364         2.09011
H         20.51066        16.27929         2.81019
O          7.22694         0.14116         0.45663
H          7.08831         0.34455        -0.49086
O          7.42904        12.61751        -2.55600
H          6.60357        13.01096        -2.94198
O         11.10910        14.64962         0.55535
H         10.47320        15.24469         1.03466
O         21.43171        15.72230        -1.14562
H         20.64210        15.66853        -1.73882
O         19.12265         3.80285        -2.34747
H         18.48625         3.42546        -2.99284
O         20.47472         6.13637         2.04995
H         19.56335         6.53386         2.12978
O          2.28296        17.39468        -1.08551
H          1.51947        18.00378        -1.16598
O         18.92121         6.78728        -1.99432
H         19.18869         5.98405        -2.49819
O         14.80933         0.64750        -2.10104
H         15.04245         1.41613        -2.67446
O          2.25118        13.20928        -2.72195
H          1.64521        13.97353        -2.82935
O         14.72602         5.42097        -2.64312
H         13.81919         5.09432        -2.86148
O         15.92770         3.09432        -2.53030
H         15.63450         3.95735        -2.93200
O         14.70751        17.54600        -2.01068
H         15.54441        17.99141        -2.28650
O          7.77202         5.74042         2.81565
H          7.83452         6.67188         3.12783
O         17.21637        18.11585        -1.67986
H         18.05784        18.62879        -1.74629
O          4.91573        13.13318        -2.63142
H          3.98409        13.30592        -2.94159
O          8.81827        10.48724        -2.55273
H          8.25112        11.18443        -2.96995
O          4.61426         9.36819         2.11905
H          4.65480         8.55912         2.68313
O         13.76473        14.21954         0.63324
H         12.92636        14.43768         1.11769
O         16.12003        15.92091         1.01261
H         15.28270        15.42066         1.18238
O          6.36153        14.30566         1.36584
H          5.63371        14.68956         1.91140
O         16.18136         1.97957         0.98567
H         16.89913         2.60294         1.23435
O          6.79890         7.60636        -1.47526
H          7.21610         7.96711        -2.28731
O          9.65076        19.07585        -1.91607
H         10.29768        18.53168        -2.42927
O         21.59318         7.81774        -1.02831
H         21.58212         8.76988        -1.29149
O         19.03049        16.61056        -2.10909
H         18.31251        16.18273        -2.62561
O         17.99987         7.19829         1.54191
H         17.83487         8.01809         2.06158
O         14.68209        12.64016        -3.09114
H         15.26239        13.32086        -3.49940
O         19.18224         3.71300         1.32210
H         19.69040         4.28984         1.94422
O         12.56168        14.63127        -2.79350
H         11.80251        14.22351        -3.27414
O          3.46562         2.36954         2.96561
H          4.24571         2.86497         3.31534
O         11.56469         7.26734         1.45330
H         11.39044         6.68007         2.22115
O         15.20777         4.22127         0.85346
H         14.62896         4.89403         1.28514
H          0.34786         1.71659         0.49863
H          0.26269         4.16539         0.68021
H          2.40938         0.44962         1.02082
H          0.34020         5.95661         0.02703
H          0.34482         8.32261        -0.48920
H          0.21200        10.22219        -0.35040
H          0.09138        12.51004        -1.10328
H          0.27765        14.19416         0.15695
H          0.24950        16.50075         0.96181
H          1.54409        18.65739         1.55685
H          4.89837         0.43813         1.20248
H          3.65503        19.88102         1.77692
H          7.59523         1.09460         2.23492
H          5.96635        20.21759         0.67727
H          9.70302         0.31111         0.51014
H          8.67256        19.24858         1.33531
H         12.26090         0.20407        -0.16765
H         11.14843        20.37487         0.16269
H         14.77389         0.21522        -0.08739
H         13.57893        20.15116         0.78748
H         17.45341         0.14312        -0.78790
H         15.90291        19.72678         1.57237
H         19.92988         0.24703        -1.07094
H         18.23329        19.48091         2.14282
H         21.99613         1.55062        -0.69497
H         23.14441         3.67784        -0.10289
H         23.06728         6.01355         0.62302
H         22.58202         7.87598         1.85491
H         22.50321        10.29392         2.12377
H         22.30540        12.19082         2.36844
H         21.80407        14.51322         3.08900
H         23.31721        16.79751         0.33147
H         20.73498        19.49775         2.52916
H         22.96280        18.53760         2.08032
