         349
 CSIRO Nanostructure Databank - Neutral Graphene Oxide Data Set
C          1.14139         2.25296         0.37461
C          1.05312         3.64270        -0.02025
C          2.27820         1.56648         0.71463
C          1.92267         4.59122         0.44805
C          1.00372         6.78713        -0.17806
C          1.06069         8.12949        -0.39262
C          2.17065         5.96164         0.00635
C          2.33898         8.77185        -0.69474
C          1.34269        11.12117        -0.77264
C          1.47837        12.42683        -1.11838
C          2.49170        10.24395        -0.70410
C          2.82338        12.91204        -1.60674
C          2.02351        15.12145        -2.45117
C          2.20476        16.46913        -2.75615
C          2.98347        14.40578        -1.72173
C          3.37370        17.12878        -2.33897
C          3.62941        18.52796        -2.69136
C          3.61880         2.12644         0.65979
C          3.76418         3.54752         0.80702
C          4.75370         1.40128         0.33301
C          4.79666         4.28961         0.26114
C          3.47321         6.49358        -0.02775
C          3.60369         7.90205        -0.48844
C          4.72517         5.74714         0.12095
C          4.86628         8.61857        -0.23966
C          3.77258        10.82007        -0.64148
C          3.92776        12.22979        -0.84696
C          4.93993        10.03714        -0.29629
C          5.09363        12.89374        -0.45589
C          4.15556        15.05790        -1.26777
C          4.32966        16.42069        -1.58444
C          5.20022        14.32680        -0.53785
C          5.62529        17.11511        -1.23853
C          4.59706        19.23545        -2.07769
C          5.35265        18.60286        -0.93357
C          6.00379         2.07805         0.09451
C          6.00684         3.53986        -0.04325
C          7.18462         1.35817         0.01063
C          7.18456         4.21382        -0.28684
C          5.94423         6.42145        -0.05314
C          6.03410         7.85385        -0.08141
C          7.18232         5.68424        -0.37396
C          7.29918         8.51739         0.06476
C          6.14570        10.69563         0.04256
C          6.20766        12.13811         0.06446
C          7.32253         9.91928         0.30677
C          7.33540        12.80243         0.55959
C          6.24962        15.00144         0.11208
C          6.30024        16.45407        -0.05052
C          7.33674        14.23668         0.73255
C          6.96273        17.30767         0.78489
C          6.61883        19.30999        -0.51384
C          7.39955        18.65519         0.41843
C          8.47589         2.00109        -0.21596
C          8.47908         3.51044        -0.37368
C          9.73987         1.33054         0.12193
C          9.64939         4.31084         0.18372
C          8.49358         6.42959        -0.51643
C          8.53093         7.81828        -0.00736
C          9.79858         5.62886        -0.65881
C          9.74051         8.44630         0.33211
C          8.52246        10.53097         0.75180
C          8.43738        11.96645         1.11902
C          9.73911         9.80734         0.79295
C          9.68317        12.61639         1.62798
C          8.48585        14.83129         1.33035
C          8.58399        16.20466         1.68847
C          9.77346        14.08139         1.35461
C          9.74947        16.97807         1.64218
C          8.65742        19.15219         0.89881
C          9.75336        18.40318         1.40143
C         10.94256         2.02285         0.20802
C         10.94913         3.51191         0.31387
C         12.18537         1.33106         0.18878
C         12.26361         4.21053         0.14464
C         11.03191         6.39985        -0.21834
C         10.99286         7.69050         0.22763
C         12.31715         5.62188        -0.46110
C         12.21515         8.35602         0.76647
C         10.99906        10.46273         1.14944
C         10.92656        11.75872         1.94440
C         12.20121         9.80231         1.06679
C         12.22865        12.57712         2.00409
C         11.03934        14.82137         1.58430
C         11.03191        16.27137         2.01180
C         12.28191        14.07863         1.96614
C         12.30158        16.94870         1.57366
C         11.01976        19.07131         1.42849
C         12.26257        18.39787         1.43647
C         13.43410         1.99612         0.11353
C         13.48206         3.38059         0.02134
C         14.73200         1.20348         0.23868
C         14.81039         4.03042         0.27316
C         13.60259         6.34782        -0.02371
C         13.53119         7.65486         0.70750
C         14.83136         5.53832         0.17826
C         14.80811         8.39134         0.92432
C         13.52229        10.56525         1.00257
C         13.53021        11.83473         1.85936
C         14.81599         9.75936         1.13657
C         14.80328        12.63167         1.82912
C         13.55782        14.79867         1.69010
C         13.47674        16.22960         1.46810
C         14.77178        14.10857         1.64119
C         14.68661        16.94661         0.92612
C         13.47553        19.10691         1.32417
C         14.72650        18.42708         1.23888
C         15.99154         1.91507        -0.25255
C         15.95252         3.41206        -0.52325
C         17.15469         1.25940        -0.41795
C         17.26069         4.10606        -0.15472
C         16.06371         6.12488         0.79315
C         16.05577         7.62727         1.07658
C         17.30088         5.46552         0.36454
C         17.34164         8.33713         0.97441
C         16.06744        10.44666         1.26911
C         16.08624        11.89222         1.56360
C         17.31869         9.78267         1.09396
C         17.32851        12.67320         1.22849
C         15.99083        14.80683         1.27116
C         15.98661        16.22401         1.15102
C         17.22042        14.13027         1.01253
C         17.17937        16.93171         1.00868
C         15.92248        19.09872         1.28882
C         17.23903        18.38584         1.40257
C         18.39482         1.99412        -0.88370
C         18.41850         3.40877        -0.33242
C         19.68382         1.24407        -0.62881
C         19.73782         4.02964         0.03319
C         18.50783         6.19940         0.36088
C         18.49813         7.62568         0.66215
C         19.71703         5.53568        -0.01006
C         19.78953         8.33169         0.63110
C         18.52578        10.53038         0.92854
C         18.52006        11.93957         0.76477
C         19.81878         9.85501         0.78476
C         19.65390        12.64564         0.34282
C         18.33464        14.82311         0.53287
C         18.37193        16.25258         0.60412
C         19.51647        14.08219         0.02976
C         19.52786        16.98947         0.24802
C         18.39953        19.11086         0.79454
C         19.51542        18.42605         0.34533
C         20.90068         1.89713        -0.63134
C         20.85547         3.38218        -0.75692
C         22.17549         1.26541        -0.59553
C         22.11327         4.15248        -1.00070
C         20.90383         6.24339        -0.31449
C         20.88953         7.72576        -0.18484
C         22.06620         5.61487        -0.77353
C         22.14207         8.52142        -0.39930
C         20.99032        10.61572         0.31776
C         20.90321        11.98254         0.08065
C         22.30693         9.88376         0.25809
C         22.09875        12.76235        -0.25513
C         20.72451        14.84387        -0.44686
C         20.65850        16.37000        -0.55352
C         22.04334        14.16154        -0.39471
C         21.98462        17.06984        -0.34967
C         20.72835        19.14303         0.01698
C         21.91888        18.50102        -0.23744
C         23.38610         1.99870        -0.64771
C         23.39285         3.42483        -0.84900
C         24.64198         1.35175        -0.45500
C         24.57662         4.14556        -0.66014
C         23.27221         6.39240        -1.02586
C         23.36147         7.80726        -0.74936
C         24.60926         5.60119        -0.90650
C         24.56379         8.57117        -1.22920
C         23.43849        10.66980        -0.35832
C         23.35778        12.08424        -0.40872
C         24.63357        10.00141        -0.72022
C         24.53783        12.83767        -0.68891
C         23.23752        14.93117        -0.53323
C         23.20077        16.39113        -0.49478
C         24.47071        14.25351        -0.69675
C         24.44231        17.14039        -0.50899
C         23.14608        19.34773        -0.46530
C         24.44005        18.57601        -0.41744
C         25.83256         2.07199        -0.31275
C         25.80793         3.50318        -0.34637
C         27.09959         1.40272        -0.13015
C         27.01171         4.26908        -0.15414
C         25.72290         6.42573        -0.28952
C         25.85372         7.77158        -0.99498
C         27.02109         5.66511        -0.22836
C         27.15793         8.49792        -0.93188
C         25.83651        10.71005        -0.86137
C         25.80662        12.14205        -0.77175
C         27.16289        10.01676        -1.22205
C         27.00402        12.87046        -0.66087
C         25.69128        15.04051        -0.93753
C         25.68492        16.48196        -0.65366
C         27.04518        14.30892        -0.88243
C         26.91792        17.18070        -0.59919
C         25.62105        19.28135        -0.39834
C         26.90057        18.63235        -0.49258
C         28.27794         2.10016        -0.02436
C         28.28040         3.56107        -0.00684
C         29.54095         1.41835         0.22860
C         29.44888         4.25422         0.19396
C         28.22334         6.43105        -0.02269
C         28.26524         7.79726        -0.21792
C         29.40251         5.71217         0.59876
C         29.47160         8.54223         0.19454
C         28.29289        10.71717        -0.50711
C         28.22330        12.14722        -0.30510
C         29.47358        10.02974         0.04170
C         29.52515        12.95949        -0.14626
C         28.25127        15.09613        -0.56145
C         28.16618        16.48934        -0.54257
C         29.50765        14.42746        -0.35932
C         29.38922        17.30066        -0.16600
C         28.07144        19.36171        -0.56382
C         29.36628        18.65708        -0.87093
C         30.70557         2.09291         0.31435
C         30.77530         3.56375        -0.00557
C         31.91820         4.29101         0.64642
C         30.73006         6.43282         0.46328
C         30.75651         7.80086         0.31898
C         31.91244         5.63544         0.75752
C         31.97438         8.59232         0.36332
C         30.79826        10.71360        -0.17501
C         30.82001        12.21656        -0.34248
C         32.00640         9.93318         0.17265
C         32.03654        13.03895        -0.18330
C         30.72083        15.12907        -0.29188
C         30.71379        16.57955        -0.34317
C         31.96530        14.39333        -0.16055
C         31.84937        17.34966        -0.37069
C         30.61405        19.44904        -0.55954
C         31.78278        18.79562        -0.37134
O         19.79677        14.25849        -1.42803
O         21.08925         8.45090        -1.45026
O          7.66378         6.23300        -1.70048
O          2.75733         4.20843         1.51878
O         10.63677        14.50089         0.21646
O         26.74106         7.73161        -2.13690
O         24.12174         5.98375        -2.18464
O         29.26164         9.42962         1.38377
O         12.21666        13.37917         3.23834
O         12.73264         7.56014         1.93487
O          7.39244        16.85373         2.03361
O         30.84765        11.33047        -1.51364
O         14.60575         6.24502        -1.08736
O         13.51035        10.99213        -0.34722
O         28.78844        12.56217         1.02284
O          8.61134        12.29753         2.55801
O         26.41065        14.69467        -2.15733
O         15.98901         6.59861         2.15674
O          3.04882         8.14795        -1.82389
O         20.17168         8.91600         1.90995
O         21.15835         3.80521        -2.10893
O         17.04729        12.26826         2.61734
O         14.29524        11.98193         3.07296
O         11.68617         4.03183         1.49197
O          8.65864         2.70469        -1.55281
O         17.53829        18.37009         2.86355
H         18.36325        17.85366         2.98790
O         15.70958         3.61263        -1.92784
H         16.45354         3.17762        -2.40942
O          4.46465        18.60873         0.22650
H          4.22756        19.53897         0.42147
O         10.75559        11.25342         3.28992
H         10.93756        11.99631         3.90882
O          2.92767        12.42313        -2.99619
H          2.89182        11.44227        -2.96375
O         29.37864        18.39704        -2.30669
H         29.32014        19.25644        -2.77304
O         24.40549         8.72418        -2.66904
H         24.37141         7.81675        -3.05166
O         22.74722         9.63328         1.62988
H         21.95797         9.31092         2.13373
O         14.91404         0.89958         1.63403
H         15.06551         1.76207         2.08690
O         29.26613        17.57086         1.26228
H         29.32560        16.71581         1.73740
O         20.02924         3.64041         1.42325
H         19.29256         3.96794         1.98254
O         20.32521        16.68809        -1.94352
H         19.76976        15.94016        -2.27161
O         27.37336        10.19181        -2.64575
H         26.89863         9.45291        -3.09440
O         31.04681         3.64947        -1.45510
H         30.33551         3.15488        -1.91553
O         25.28463         6.68231         1.07891
H         26.07485         6.84715         1.63605
O          9.22194         4.69356         1.50840
H         10.03619         4.78619         2.05897
O         12.40506         5.39913        -1.87960
H         13.34815         5.51744        -2.14680
O         18.26085         2.13994        -2.34693
H         19.08359         2.56745        -2.67439
O         11.04932        16.23243         3.47392
H         11.11875        17.15426         3.79958
O         14.53022        16.87907        -0.54034
H         13.62980        17.20328        -0.75739
O          6.49557        17.05197        -2.39467
H          6.57496        16.11397        -2.66621
O         23.17964        20.45879         0.44150
H         23.31521        20.11319         1.34726
O         29.14394         5.69322         2.05092
H         29.24760         6.61281         2.37867
O          9.95395         5.24093        -2.02239
H          9.07642         5.34712        -2.46121
O         15.12151         3.73934         1.67549
H         14.43027         4.15361         2.23703
H          0.21750         1.66203         0.26331
H          0.28342         3.91962        -0.75522
H          2.19723         0.47810         0.86131
H          0.02648         6.31282        -0.00507
H          0.14356         8.73140        -0.33564
H          0.34716        10.71706        -0.53818
H          0.59821        13.08240        -1.18746
H          1.13036        14.59730        -2.81937
H          1.44829        17.01104        -3.34151
H          3.00357        18.98653        -3.47214
H          4.70962         0.30785         0.22560
H          4.77883        20.29074        -2.33347
H          7.17344         0.28128         0.23796
H          6.88979        20.30129        -0.90756
H          9.75331         0.22926         0.14735
H          8.87784        20.20326         0.64772
H         12.16743         0.23054         0.18503
H         11.03069        20.16040         1.26847
H         14.62240         0.22441        -0.29507
H         13.46334        20.20671         1.36978
H         17.21919         0.17289        -0.24912
H         15.92478        20.19390         1.41040
H         19.65309         0.14356        -0.60464
H         18.43222        20.20824         0.87492
H         22.22489         0.17361        -0.46951
H         20.72027        20.24125         0.08142
H         24.66548         0.25448        -0.37883
H         23.05760        19.79488        -1.49560
H         27.10922         0.30337        -0.08017
H         25.58677        20.37965        -0.34468
H         29.51317         0.32921         0.38588
H         28.03496        20.46239        -0.54603
H         31.64702         1.55786         0.51097
H         32.81963         3.71741         0.90969
H         32.81484         6.14962         1.12250
H         32.92086         8.07022         0.56434
H         32.97122        10.45970         0.20506
H         33.01325        12.53622        -0.15095
H         32.89876        14.96453        -0.06390
H         32.84710        16.88875        -0.39714
H         30.58378        20.54815        -0.61592
H         32.72044        19.35544        -0.23903
