         424
 CSIRO Nanostructure Databank - Neutral Graphene Oxide Data Set
C          1.19684         3.47725         0.82958
C          0.00139         4.16219         0.96377
C          1.17091         6.31118         0.94252
C         -0.01801         5.56508         1.01313
C          1.16477         7.77101         0.90054
C         -0.02341         8.52071         1.00287
C          1.15953        10.60965         0.57681
C         -0.01766         9.90801         0.89384
C          1.17412        12.13521         0.59151
C         -0.11568        12.80064         0.17417
C          1.06435        14.86170        -0.64467
C         -0.15878        14.06295        -0.27061
C          1.11501        16.28864        -0.14834
C         -0.03091        16.95170         0.29774
C          1.17028        19.06048         0.32642
C          0.00715        18.31773         0.57369
C          1.14901        20.54301         0.63184
C         -0.03588        21.26436         0.03124
C          1.13875        23.42676        -0.00058
C         -0.04080        22.60643        -0.15349
C          1.13750        24.79673        -0.22101
C         -0.06501        25.57833        -0.29332
C          1.19797        27.69898        -0.20743
C         -0.03092        26.94999        -0.25632
C          1.20582        29.13514        -0.04152
C          0.02925        29.86148         0.25107
C          1.23672        31.98342         0.20899
C          0.05341        31.24115         0.39732
C          1.23752        33.43617         0.25332
C          0.07620        34.18715         0.59505
C          1.19706        36.31823         0.21732
C          0.08772        35.58566         0.64276
C          1.23219        37.74857         0.25238
C          3.65151         3.49827         0.61141
C          2.42828         4.18800         0.77133
C          3.65693         6.33806         0.84149
C          2.41296         5.62019         0.84665
C          3.65449         7.77739         0.74130
C          2.38373         8.47275         0.69055
C          3.59304        10.52135        -0.01549
C          2.35392         9.87496         0.47017
C          3.59536        11.99443        -0.30181
C          2.36487        12.78747        -0.09208
C          3.58025        14.88285        -0.59543
C          2.35678        14.12924        -0.37295
C          3.58473        16.27308        -0.56551
C          2.33471        16.99695        -0.28745
C          3.57215        19.18628        -0.46914
C          2.34112        18.39889        -0.08089
C          3.60768        20.60096         0.07906
C          2.44124        21.26424         0.32059
C          3.66087        23.46173         0.09578
C          2.39791        22.76514         0.52727
C          3.67626        24.83001        -0.14510
C          2.41486        25.52268        -0.58495
C          3.64863        27.70838        -0.41293
C          2.42128        27.01142        -0.32655
C          3.66051        29.15100        -0.39077
C          2.43332        29.85315        -0.17129
C          3.66316        31.98778        -0.32970
C          2.44504        31.28181        -0.10505
C          3.66043        33.43720        -0.28568
C          2.42361        34.12614        -0.06492
C          3.65467        36.31549        -0.43519
C          2.31496        35.57223        -0.47212
C          3.65742        37.81116        -0.24572
C          2.36566        38.47213        -0.00176
C          6.12268         3.51306         0.47392
C          4.88190         4.19006         0.61808
C          6.14331         6.29089         0.99423
C          4.86596         5.61143         0.81038
C          6.14547         7.84072         0.90072
C          4.86632         8.49670         0.62402
C          6.09295        10.57327         0.04058
C          4.88930         9.86412         0.21954
C          6.08603        11.99557        -0.27210
C          4.88482        12.68762        -0.39659
C          6.14785        14.86398        -0.73623
C          4.83879        14.11384        -0.74969
C          6.12629        16.31965        -0.54291
C          4.84519        17.02994        -0.51462
C          6.13474        19.08483         0.10300
C          4.83982        18.39247        -0.28976
C          6.12300        20.59667         0.00939
C          4.88825        21.31187         0.11045
C          6.12478        23.47436         0.26321
C          4.87512        22.71803         0.16417
C          6.13501        24.90250        -0.07034
C          4.90675        25.56547        -0.24491
C          6.12261        27.68301        -0.54436
C          4.89621        26.98882        -0.44694
C          6.11405        29.12943        -0.97832
C          4.86789        29.86647        -0.55410
C          6.13687        31.99942        -0.66438
C          4.88516        31.28511        -0.53658
C          6.10526        33.49629        -0.91482
C          4.86070        34.14559        -0.38392
C          6.15680        36.32550        -0.19703
C          4.87772        35.57338         0.08027
C          6.12497        37.73659        -0.07356
C          4.93188        38.43356         0.10332
C          8.60914         3.49157         0.34433
C          7.36207         4.20172         0.49571
C          8.68036         6.33498         0.94045
C          7.38803         5.59011         0.71933
C          8.61450         7.78882         0.50431
C          7.40015         8.50373         0.50487
C          8.58094        10.58719        -0.01119
C          7.35533         9.88315         0.15980
C          8.58281        12.01002        -0.17760
C          7.35020        12.71723        -0.31978
C          8.59720        14.85100        -0.35175
C          7.37960        14.12037        -0.44021
C          8.59192        16.28084        -0.42927
C          7.33732        16.98375        -0.48685
C          8.62528        19.15874        -0.35865
C          7.31215        18.48168        -0.65937
C          8.60746        20.56130        -0.23052
C          7.35570        21.25657        -0.04999
C          8.65020        23.44808        -0.16774
C          7.42904        22.70310         0.17849
C          8.61361        24.87340        -0.24301
C          7.37120        25.58556        -0.21631
C          8.59853        27.71651        -0.55347
C          7.35202        26.99934        -0.44100
C          8.58151        29.17420        -0.55429
C          7.38519        29.86815        -0.64377
C          8.62144        32.01424        -0.53921
C          7.35846        31.31018        -0.63726
C          8.65843        33.49167        -0.86295
C          7.38071        34.21762        -0.52660
C          8.65764        36.33017        -0.26666
C          7.38767        35.59959        -0.34718
C          8.66369        37.75105        -0.09223
C          7.39149        38.55542        -0.15974
C         11.05302         3.44429         0.05214
C          9.82339         4.15971         0.28665
C         11.04910         6.27689         0.08110
C          9.87985         5.60108         0.38427
C         11.06425         7.73764         0.07234
C          9.82406         8.46320         0.22101
C         11.04788        10.58734        -0.08100
C          9.81410         9.87780         0.03246
C         11.05575        12.00801        -0.12587
C          9.81537        12.72079        -0.17720
C         11.06248        14.86135        -0.17578
C          9.82834        14.14443        -0.23318
C         11.05545        16.28693        -0.22560
C          9.82394        16.99285        -0.36032
C         11.08375        19.14612        -0.29914
C          9.83655        18.43727        -0.35679
C         11.05499        20.56851        -0.33279
C          9.84388        21.28606        -0.26240
C         11.08981        23.46497        -0.36809
C          9.84479        22.73334        -0.30915
C         11.06648        24.90404        -0.45274
C          9.83290        25.59757        -0.44508
C         11.08661        27.77293        -0.82923
C          9.80327        27.02577        -0.58048
C         11.05371        29.20945        -0.38030
C          9.82993        29.88376        -0.36594
C         11.07069        32.03394         0.07067
C          9.79701        31.32479        -0.32570
C         11.09066        33.50196        -0.25747
C          9.90970        34.19571        -0.39593
C         11.12278        36.33405        -0.09203
C          9.88350        35.63647        -0.28707
C         11.10796        37.76191         0.09361
C          9.84988        38.43634         0.07943
C         13.48327         3.29576        -0.46596
C         12.24075         4.09657        -0.14587
C         13.48259         6.21291        -0.39667
C         12.28035         5.54387        -0.18364
C         13.46519         7.69915        -0.66670
C         12.24386         8.42829        -0.16597
C         13.49960        10.58401        -0.12518
C         12.27884         9.86656        -0.12708
C         13.52470        11.99624        -0.09315
C         12.28973        12.72029        -0.11381
C         13.52900        14.85705         0.04098
C         12.29514        14.14543        -0.08912
C         13.50115        16.26636         0.10733
C         12.29567        17.00095        -0.10265
C         13.58299        19.12738        -0.06704
C         12.32012        18.42580        -0.18239
C         13.62631        20.59045        -0.30192
C         12.31581        21.32048        -0.45038
C         13.54649        23.52496         0.08123
C         12.29507        22.77365        -0.28355
C         13.59349        24.85787        -0.64745
C         12.31046        25.63827        -0.46584
C         13.55306        27.78525        -0.09050
C         12.31437        27.00652        -0.41955
C         13.59702        29.19661        -0.75002
C         12.30710        29.93375        -0.40447
C         13.59103        32.03468        -0.66174
C         12.32425        31.29569        -0.31144
C         13.55816        33.50164        -0.31742
C         12.36708        34.19136        -0.19702
C         13.57834        36.35120         0.06300
C         12.34912        35.63990        -0.09150
C         13.55135        37.77870         0.28060
C         12.30675        38.45618         0.28652
C         15.98302         3.40179        -0.34625
C         14.77139         4.08037        -0.37799
C         15.98798         6.19545        -0.47454
C         14.75170         5.50518        -0.43353
C         16.00333         7.66758        -0.59441
C         14.74250         8.36770        -0.21301
C         16.04429        10.57955        -0.13212
C         14.76926         9.84424        -0.02108
C         16.02323        11.99474        -0.10041
C         14.77411        12.70679        -0.05268
C         16.02416        14.81230        -0.00824
C         14.78274        14.12395         0.03295
C         16.05752        16.25906         0.24102
C         14.74365        17.00549         0.36042
C         16.04045        19.17908         0.56341
C         14.75925        18.46233         0.19406
C         16.07370        20.64421         0.21747
C         14.85214        21.35915         0.03967
C         16.05246        23.50924         0.04324
C         14.83950        22.75769        -0.02605
C         16.07654        24.89343        -0.14888
C         14.84244        25.63841        -0.31851
C         16.08803        27.78073        -0.50022
C         14.82256        27.00298        -0.27017
C         16.03666        29.21490        -0.04616
C         14.83605        29.92874        -0.23546
C         16.03244        32.04531         0.14045
C         14.83261        31.32771        -0.15574
C         16.05703        33.47871         0.11447
C         14.86664        34.23642        -0.44493
C         16.01162        36.34656         0.31612
C         14.80941        35.66457         0.03385
C         15.98908        37.77738         0.51151
C         14.76274        38.46883         0.46579
C         18.46678         3.38383        -0.27075
C         17.22198         4.09049        -0.34213
C         18.48314         6.23256        -0.33267
C         17.22772         5.51394        -0.40989
C         18.53694         7.65577        -0.28591
C         17.28889         8.42105        -0.47684
C         18.48782        10.56522        -0.10514
C         17.26884         9.87704        -0.17743
C         18.49757        11.98658        -0.14256
C         17.26102        12.70721        -0.15164
C         18.51460        14.85406        -0.15760
C         17.25875        14.13108        -0.14809
C         18.54125        16.26813        -0.13817
C         17.24560        17.02651        -0.29931
C         18.50999        19.15252         0.11419
C         17.30500        18.46372         0.14458
C         18.53217        20.60374         0.25308
C         17.29580        21.31546         0.27828
C         18.57689        23.50203         0.20494
C         17.28874        22.80036         0.53221
C         18.56759        24.91770         0.12390
C         17.32296        25.63347        -0.03095
C         18.52077        27.76099         0.18396
C         17.32316        27.02562        -0.09601
C         18.45608        29.16063         0.43102
C         17.23662        29.89089         0.30128
C         18.44883        32.03490         0.69082
C         17.22757        31.32280         0.42330
C         18.45110        33.46220         0.69314
C         17.23500        34.17696         0.40617
C         18.43428        36.33187         0.73480
C         17.24212        35.62937         0.45316
C         18.41818        37.77103         0.82551
C         17.20616        38.46481         0.72701
C         19.65565         4.06033        -0.21063
C         20.91231         6.19380        -0.03374
C         19.69327         5.49540        -0.20471
C         20.93273         7.57677         0.05867
C         19.74610         8.33122        -0.07034
C         20.95091        10.56390        -0.40613
C         19.77794         9.82870         0.19234
C         20.93535        11.91557        -0.49838
C         19.73892        12.69553        -0.24167
C         20.96731        14.86193        -0.20479
C         19.74778        14.11776        -0.20816
C         20.97458        16.23383        -0.14573
C         19.76012        16.98630        -0.12106
C         20.95185        19.17768        -0.06595
C         19.76110        18.43316        -0.05411
C         20.95693        20.56764         0.04904
C         19.76697        21.31030         0.19367
C         21.00053        23.51425         0.12526
C         19.78382        22.77842         0.19112
C         21.01000        24.89357         0.12746
C         19.79911        25.64253         0.12625
C         20.97997        27.86473         0.26043
C         19.77192        27.07065         0.21287
C         20.94414        29.18206         0.56932
C         19.66390        29.82196         1.04443
C         20.81237        32.04394         1.25696
C         19.65344        31.32978         0.95865
C         20.82269        33.44073         1.24297
C         19.66201        34.17141         0.95349
C         20.83697        36.36686         1.16072
C         19.67120        35.63288         0.94672
C         20.82242        37.77982         1.19842
C         19.64276        38.47242         1.05024
O         14.74645         8.87163         1.14190
O          3.42166        11.00552        -1.40898
O          6.88508        23.13081         1.48365
O          3.83552        37.12710        -1.59937
O         15.54023        16.58745         1.56456
O         13.12878        20.92566        -1.64595
O         16.65491         8.16753        -1.80447
O         13.70226        29.11541        -2.16415
O          6.20839         7.16407         2.19971
O          5.53051        14.43132        -2.01374
O          1.91063        35.51653        -1.87955
H          2.40350        36.23985        -2.33979
O         11.28322        27.87600        -2.28937
H         12.16539        28.35740        -2.42649
O          1.35568        12.45518         2.01721
H          1.23359        13.42234         2.12506
O          8.87157         6.36609         2.40123
H          8.02957         6.72472         2.77539
O          3.46571        19.40017        -1.92409
H          3.56128        18.52710        -2.36183
O         13.54596         2.11261         0.33966
H         13.60404         2.38534         1.27813
O         13.46872        28.08032         1.34583
H         13.42072        27.22594         1.82600
O          6.02995        33.64595        -2.38088
H          6.92387        33.38859        -2.72483
O         13.67650        24.54784        -2.06198
H         13.69694        25.39173        -2.56123
O          0.98184        20.63037         2.08608
H          1.17862        21.56789         2.33715
O         15.11790        34.31297        -1.89853
H         14.78604        33.46528        -2.29089
O         17.18444        22.89834         2.01582
H         17.79983        22.23451         2.39558
O         13.45322         7.85093        -2.12422
H         12.66609         7.38151        -2.47165
O         16.11627        27.90128        -1.97367
H         15.25267        28.36872        -2.23231
O          8.75241        33.52972        -2.34892
H          8.99045        34.44851        -2.59985
O          7.05259        18.72792        -2.07298
H          7.77237        18.31365        -2.59323
O         13.41595        23.85337         1.50598
H         13.74665        23.09517         2.03290
O          1.01384        14.98282        -2.10589
H          1.18297        14.09419        -2.48499
O          2.45352        25.41117        -2.06328
H          1.65697        25.86995        -2.40675
O         11.05817        32.00864         1.55312
H         10.22657        32.43732         1.84784
O          4.69254        35.54985         1.54859
H          5.46120        35.08118         1.93711
O         16.98115        17.07463        -1.75295
H         17.74782        17.51321        -2.17990
O         16.06040        19.17513         2.04455
H         15.98361        18.22396         2.31054
O          2.33494        22.99666         1.99413
H          3.21079        22.75321         2.36501
O         13.71665        31.92116        -2.13134
H         13.72666        30.93235        -2.33892
O          6.34420        18.77343         1.51287
H          5.67508        19.26102         2.03715
O         19.95030         9.92925         1.65391
H         19.97846        10.88367         1.87906
O         19.57042        29.51241         2.48907
H         19.58393        28.53526         2.57821
O          6.06179        29.09243        -2.45340
H          5.24520        28.61150        -2.70653
O          7.39178        39.58924         0.83578
H          7.45534        39.16506         1.71572
H          1.20788         2.37951         0.77233
H         -0.94640         3.60845         1.01674
H         -0.98790         6.07354         1.09507
H         -0.97896         8.01624         1.19939
H         -0.96338        10.44747         1.03830
H         -1.06234        12.26619         0.34494
H         -1.13345        14.50307        -0.53345
H         -0.97069        16.39852         0.43266
H         -0.89193        18.82090         0.95471
H         -0.95526        20.69168        -0.16239
H         -0.95555        23.08257        -0.53833
H         -1.04128        25.07482        -0.24460
H         -0.98552        27.49300        -0.23536
H         -0.92519        29.33591         0.38699
H         -0.88589        31.75562         0.63996
H         -0.84245        33.66592         0.89512
H         -0.79696        36.11815         1.02393
H          0.31227        38.27912         0.54425
H          3.64503         2.40373         0.50365
H          2.35658        39.56573         0.11633
H          6.12070         2.42113         0.34398
H          4.96526        39.50763         0.33822
H          8.58306         2.39769         0.23351
H          7.37701        39.08584        -1.15345
H         11.02879         2.34462         0.02788
H          9.82512        39.52834         0.20791
H         13.38690         2.93726        -1.53194
H         12.28559        39.54405         0.44786
H         15.97795         2.30229        -0.31060
H         14.75197        39.56162         0.59126
H         18.45016         2.28446        -0.24851
H         17.19543        39.55950         0.83619
H         20.60460         3.50904        -0.13752
H         21.84676         5.62282         0.06701
H         21.88609         8.09042         0.24564
H         21.87048        10.01124        -0.64788
H         21.83961        12.43748        -0.84409
H         21.92715        14.32816        -0.22333
H         21.94148        16.75368        -0.12152
H         21.91864        18.66891        -0.17757
H         21.92574        21.08219         0.00578
H         21.96326        22.98628         0.11138
H         21.97647        25.41564         0.12290
H         21.94082        27.39321         0.00934
H         21.87894        29.75963         0.58633
H         21.73807        31.51402         1.51920
H         21.76325        33.95660         1.47605
H         21.79847        35.85765         1.30946
H         21.76461        38.32029         1.36621
H         19.62608        39.57044         1.10405
