         349
 CSIRO Nanostructure Databank - Neutral Graphene Oxide Data Set
C          1.43420         2.07753         1.81478
C          1.36717         3.47069         1.63412
C          2.57936         1.34703         1.51484
C          2.42293         4.19822         1.05318
C          1.35844         6.44887         1.35049
C          1.36270         7.81603         1.17084
C          2.41290         5.60437         0.89950
C          2.47383         8.51827         0.56338
C          1.42523        10.77259         0.97980
C          1.41491        12.13374         0.90545
C          2.50978         9.98724         0.44832
C          2.49110        12.87800         0.30462
C          1.30469        15.07155         0.61381
C          1.25478        16.41902         0.47743
C          2.40805        14.26401         0.14808
C          2.25450        17.26379        -0.28134
C          2.60340        18.51465         0.48944
C          3.73370         1.98437         0.98559
C          3.61310         3.41977         0.50278
C          4.93118         1.31132         0.79561
C          4.91149         4.17830         0.77797
C          3.50026         6.25236         0.07347
C          3.54926         7.76058         0.14877
C          4.85956         5.60190         0.26654
C          4.71036         8.39652        -0.50318
C          3.58418        10.65929        -0.13980
C          3.65269        12.11485        -0.17224
C          4.71787         9.88358        -0.68958
C          4.79980        12.78227        -0.59113
C          3.51523        14.97619        -0.53575
C          3.49019        16.46802        -0.71051
C          4.82950        14.26224        -0.50891
C          4.78771        17.22920        -0.92279
C          3.79856        19.12825         0.41246
C          4.93169        18.59113        -0.33397
C          6.13327         1.99069         0.37438
C          6.13012         3.40583         0.31827
C          7.32567         1.30036         0.03219
C          7.30573         4.08567        -0.00900
C          6.00362         6.26108        -0.03533
C          6.02601         7.73077        -0.23637
C          7.27481         5.53650        -0.22679
C          7.31854         8.47117        -0.36136
C          6.01123        10.58948        -1.02373
C          6.02421        12.08173        -1.07529
C          7.33932         9.86037        -0.93140
C          7.36279        12.79593        -1.15540
C          6.07794        15.00820        -0.81678
C          6.07466        16.47034        -1.13531
C          7.36141        14.29414        -1.09776
C          7.36428        17.16291        -0.90693
C          6.12548        19.24059        -0.36397
C          7.32691        18.66950        -1.09383
C          8.50595         1.97936        -0.28161
C          8.52165         3.39813        -0.26063
C          9.73906         1.20961        -0.70852
C          9.77612         4.13240        -0.21734
C          8.59320         6.28164        -0.22716
C          8.61869         7.76006        -0.17656
C          9.80280         5.50238         0.03007
C          9.77599         8.43851         0.02811
C          8.64805        10.61360        -0.83609
C          8.62554        12.10633        -0.76413
C          9.95575         9.85777        -0.52609
C          9.73044        12.84875        -0.40752
C          8.56823        15.02070        -0.66005
C          8.50129        16.46603        -0.58434
C          9.73487        14.30787        -0.40266
C          9.70140        17.19285        -0.02363
C          8.62718        19.33839        -0.75074
C          9.76340        18.65033        -0.42793
C         11.03055         2.00459        -0.64111
C         11.01439         3.39133        -0.33568
C         12.24124         1.36515        -0.89896
C         12.23750         4.10415        -0.21692
C         10.97099         6.14443         0.75162
C         10.96652         7.73524         0.62490
C         12.25844         5.42261         0.34802
C         12.16613         8.63780         0.84654
C         11.01987        10.70516         0.13914
C         10.91001        12.20181         0.28882
C         12.16051        10.08448         0.51467
C         12.23351        12.90233         0.05827
C         10.98679        15.03165        -0.21321
C         10.99900        16.43996        -0.21317
C         12.22655        14.31830        -0.12786
C         12.22024        17.15669        -0.19760
C         11.02947        19.31446        -0.34863
C         12.22573        18.60398        -0.23212
C         13.48343         2.06931        -0.86615
C         13.47346         3.44846        -0.48943
C         14.72541         1.44164        -1.13937
C         14.70344         4.16971        -0.41975
C         13.50157         5.90176         0.73320
C         13.51515         8.08862         1.03189
C         14.72974         5.48864         0.14900
C         14.65563         8.55905         0.48837
C         13.47890        10.78736         0.68358
C         13.43628        12.22859         0.24170
C         14.65798        10.02161         0.02711
C         14.68646        12.91340         0.13979
C         13.46019        15.03037        -0.13509
C         13.46311        16.45826        -0.18602
C         14.69675        14.32377        -0.05519
C         14.69908        17.17170        -0.16338
C         13.48285        19.28576        -0.19707
C         14.68258        18.60437        -0.15132
C         15.93205         2.16707        -1.13075
C         15.90378         3.55409        -0.82455
C         17.21682         1.50707        -1.28778
C         17.11425         4.37869        -0.90421
C         15.91451         6.30156         0.14446
C         15.94432         7.74143         0.71325
C         17.10984         5.73972        -0.31766
C         17.10214         8.55629         0.09714
C         15.84276        10.74843         0.71427
C         15.91887        12.19991         0.26635
C         17.19501         9.95284         0.76313
C         17.13498        12.86823         0.10830
C         15.93617        15.03418        -0.11821
C         15.93810        16.45534        -0.17398
C         17.17330        14.30732        -0.09814
C         17.18207        17.16805        -0.27177
C         15.96533        19.39130        -0.00819
C         17.21758        18.58867        -0.26686
C         18.40636         2.16838        -1.19661
C         18.44011         3.64339        -1.12377
C         19.71623         1.41041        -1.28933
C         19.67977         4.34072        -0.73243
C         18.37798         6.43551        -0.22120
C         18.41267         7.80388         0.10953
C         19.60840         5.70402        -0.43042
C         19.64323         8.53240         0.24358
C         18.39028        10.72429         0.23262
C         18.36033        12.09824         0.10681
C         19.65161         9.99128         0.24877
C         19.63594        12.83858         0.02002
C         18.38115        15.01846        -0.26789
C         18.40351        16.43854        -0.39708
C         19.67356        14.31609        -0.16849
C         19.63246        17.14210        -0.59663
C         18.42988        19.25080        -0.42815
C         19.63506        18.53585        -0.61967
C         20.93337         2.17148        -0.79809
C         20.91407         3.59326        -0.65898
C         22.11301         1.46920        -0.57349
C         22.13930         4.25006        -0.33902
C         20.85923         6.47132        -0.39097
C         20.85531         7.84971         0.10065
C         22.17394         5.72017        -0.39135
C         22.13468         8.50821         0.33466
C         20.85338        10.66072         0.04921
C         20.84289        12.06865        -0.36843
C         22.15212        10.03555         0.26770
C         22.12444        12.79977        -0.58335
C         20.93826        14.96238        -0.58951
C         20.92987        16.43214        -0.92759
C         22.12745        14.28302        -0.58143
C         22.11791        17.09901        -0.21101
C         20.90769        19.28537        -0.93902
C         22.17304        18.57819        -0.50129
C         23.32094         2.11970        -0.18593
C         23.31402         3.53438        -0.07124
C         24.55101         1.41531         0.00813
C         24.52470         4.25145         0.49657
C         23.40273         6.44214        -0.01272
C         23.41038         7.79663         0.13615
C         24.68040         5.66168        -0.09185
C         24.65603         8.55725         0.26956
C         23.41888        10.72746        -0.08994
C         23.39419        12.06549        -0.42314
C         24.66672        10.00803         0.06754
C         24.62591        12.78572        -0.78171
C         23.41796        14.97892        -0.63162
C         23.42817        16.38119        -0.49646
C         24.64470        14.26493        -0.69688
C         24.65343        17.07874        -0.46236
C         23.35037        19.23130        -0.37993
C         24.62165        18.52626        -0.22630
C         25.76977         2.08815         0.18872
C         25.82093         3.48772         0.33182
C         27.06574         1.30767         0.29928
C         27.08292         4.19166         0.32651
C         25.82155         6.40762         0.56008
C         25.83480         7.88070         0.44468
C         27.11091         5.65447         0.63810
C         27.07887         8.61778         0.87228
C         25.89539        10.66430        -0.06070
C         25.93635        12.03411        -0.60973
C         27.13871        10.00868         0.27267
C         27.18369        12.82383        -0.52516
C         25.88826        14.94534        -0.62516
C         25.88013        16.36673        -0.54806
C         27.15819        14.19914        -0.60264
C         27.15191        17.11461        -0.47570
C         25.75170        19.20957         0.11953
C         27.07818        18.59474        -0.01898
C         28.24514         2.06105        -0.34013
C         28.26078         3.52573         0.04970
C         29.56489         1.38327        -0.03849
C         29.54554         4.25268        -0.08653
C         28.34972         6.45622         0.51885
C         28.34569         7.82706         0.62821
C         29.59903         5.75686         0.14918
C         29.59710         8.55555         0.60548
C         28.35894        10.62848         0.08251
C         28.42788        12.01114        -0.46357
C         29.61267         9.92561         0.35690
C         29.76250        12.72009        -0.45915
C         28.44394        14.96440        -0.66588
C         28.42372        16.39643        -0.26331
C         29.76719        14.22225        -0.61734
C         29.54044        17.07041         0.18982
C         28.20453        19.08692         0.75138
C         29.40842        18.39213         0.80592
C         30.72479         2.05515         0.12445
C         30.80093         3.50628         0.09192
C         31.98044         4.19443         0.26138
C         30.88148         6.37471         0.51340
C         30.81733         7.78795         1.07789
C         32.01869         5.61330         0.47669
C         32.08285         8.57878         0.92620
C         30.86654        10.66065         0.40672
C         30.91765        12.03654         0.17565
C         32.07707         9.90765         0.69725
C         32.08706        12.82357         0.46518
C         31.01926        14.96252        -0.22564
C         30.89309        16.45528         0.18847
C         32.14515        14.16978         0.28266
C         31.93172        17.06119         1.02098
C         30.48458        18.92148         1.57575
C         31.70555        18.24479         1.69390
O         21.63702         6.28052        -1.64816
O          3.16677        15.58328        -1.82947
O         19.85118        13.69826         1.19180
O         17.75407         4.31549        -2.23533
O         25.30523        12.18698        -1.93123
O         29.22178        14.67918        -1.87919
O          8.13009        10.07425        -2.11954
O          5.69146        14.77450         0.59254
O          4.40626         8.95880        -1.80746
O          7.92536         5.89430        -1.49665
O         11.23165         8.33583         1.94575
O          5.31168        16.99041        -2.27196
O         29.55654         5.20136        -1.21817
O         29.27872        12.05744        -1.66499
O         31.38284        16.02552        -1.13363
O         13.87319        10.78547         2.10188
O          7.46737        13.61101        -2.37874
O          6.61892         8.43493         0.94614
O         26.31809         5.95931         1.86030
O         13.54203         6.88008         1.73763
O         21.32032        12.27894        -1.74035
O         22.19547         9.32947         1.55186
O          5.82240        11.28547        -2.29283
O         27.32463        18.21310        -1.41853
O         15.36308        10.82169         2.11745
O          3.16224         5.99146        -1.33208
H          3.24062         5.01128        -1.47120
O          7.14175        18.93537        -2.51598
H          6.37653        18.38284        -2.81476
O         21.13330        16.53824        -2.35728
H         21.00939        17.48506        -2.61468
O          1.58382        17.70034        -1.49484
H          1.68377        16.96728        -2.14438
O         28.03812         1.99696        -1.77833
H         28.66464         2.62179        -2.20138
O         10.73524         5.86303         2.15371
H         11.13902         6.60609         2.66438
O         24.23409         4.41236         1.91600
H         24.24393         3.52267         2.32618
O         19.61541         0.13935        -0.63801
H         19.49351         0.29158         0.32111
O         27.33748         1.07229         1.69078
H         27.38255         1.93997         2.14353
O         30.61272         7.59387         2.52466
H         30.41513         8.47126         2.91594
O          9.47580        17.20027         1.43083
H         10.26862        17.59904         1.84817
O         10.58407         9.58152        -1.81805
H          9.85496         9.47129        -2.47572
O          9.86740        -0.00525         0.04357
H         10.04387         0.23068         0.97714
O         26.94447         8.77797         2.32512
H         26.72077         7.88411         2.67781
O         16.17508         7.59543         2.12123
H         15.35490         7.22377         2.51615
O         21.86239        16.95798         1.21565
H         22.60272        17.37867         1.70048
O          4.99777         4.28344         2.23061
H          5.83872         4.73227         2.45860
O         16.81582         8.76619        -1.31683
H         16.97219         7.92063        -1.79067
O         17.55097         9.71566         2.13603
H         17.49611        10.56156         2.62634
O         25.04050         5.54126        -1.49110
H         24.22839         5.36114        -2.01084
O         15.93542        20.57007        -0.82317
H         15.90160        20.29252        -1.76145
O         10.59970        12.39994         1.71474
H         11.34987        12.04290         2.23811
O          3.46239         3.32938        -0.94951
H          2.68970         2.75495        -1.13453
O         20.96910        19.39541        -2.38434
H         21.82045        19.81804        -2.62387
O         14.59865        10.20191        -1.37507
H         15.37128         9.73113        -1.77301
H          0.56941         1.56123         2.25485
H          0.46176         3.99621         1.96916
H          2.62200         0.27346         1.75050
H          0.49864         5.99916         1.86874
H          0.49432         8.38272         1.53155
H          0.57029        10.26854         1.44813
H          0.54706        12.67488         1.30445
H          0.47369        14.57518         1.13530
H          0.37492        16.95666         0.86278
H          1.79413        18.97765         1.07399
H          4.98592         0.23413         1.01742
H          3.96334        20.07324         0.95249
H          7.33014         0.20021         0.03211
H          6.21000        20.23207         0.10753
H          9.58355         0.89384        -1.77866
H          8.69710        20.41583        -0.96962
H         12.24054         0.29216        -1.14071
H         11.06302        20.40689        -0.47946
H         14.74490         0.36594        -1.36908
H         13.49043        20.38574        -0.20570
H         17.22448         0.41125        -1.39162
H         16.01667        19.75688         1.05812
H         19.88915         1.18425        -2.38013
H         18.44374        20.35063        -0.43466
H         22.11004         0.37602        -0.69727
H         20.87106        20.32326        -0.50142
H         24.55398         0.31943        -0.08676
H         23.39246        20.32712        -0.49387
H         26.96160         0.30874        -0.18851
H         25.69147        20.26998         0.40819
H         29.56831         0.28308        -0.02070
H         28.06744        19.98503         1.37162
H         31.66135         1.50175         0.29532
H         32.92113         3.63245         0.35662
H         32.99170         6.05830         0.72919
H         33.03999         8.06812         1.10594
H         33.04164        10.43168         0.64774
H         32.97816        12.32106         0.86436
H         33.08960        14.69257         0.48443
H         32.93099        16.60768         1.03924
H         30.34646        19.89118         2.07359
H         32.51136        18.68829         2.29547
