         424
 CSIRO Nanostructure Databank - Neutral Graphene Oxide Data Set
C          1.77899         2.21891         3.11639
C          1.69784         3.60269         2.86240
C          2.92161         1.50959         2.80369
C          2.76194         4.29951         2.27961
C          1.52441         6.46733         2.24284
C          1.46644         7.82995         1.99016
C          2.69994         5.72419         2.00583
C          2.59200         8.53449         1.52084
C          1.34278        10.69647         1.34175
C          1.30184        12.06046         1.03150
C          2.54074         9.96425         1.26342
C          2.46320        12.76499         0.72048
C          1.18169        14.97476         0.42822
C          1.20212        16.33214         0.44155
C          2.42820        14.17422         0.15572
C          2.43198        17.07618         0.33427
C          2.44418        18.48700         0.27783
C          4.03610         2.16131         2.20331
C          3.95498         3.58125         1.91704
C          5.23213         1.46324         1.98128
C          5.03936         4.24941         1.32968
C          3.84787         6.40130         1.49920
C          3.80476         7.81699         1.29432
C          5.03427         5.66500         1.16728
C          4.98707         8.51011         0.88762
C          3.73970        10.65432         0.92439
C          3.70934        12.06966         0.72715
C          4.97490         9.94113         0.77459
C          4.93641        12.77558         0.55915
C          3.67469        14.96173         0.45110
C          3.67600        16.35354         0.37550
C          4.94069        14.25523         0.82506
C          4.92071        17.08779         0.32777
C          3.63423        19.19047         0.20357
C          4.89507        18.51285         0.19021
C          6.35007         2.08410         1.37609
C          6.15026         3.43376         0.71874
C          7.56070         1.42271         1.24520
C          7.43651         4.19175         0.49753
C          6.19426         6.35540         0.69527
C          6.18136         7.78167         0.61096
C          7.39643         5.63190         0.34556
C          7.38098         8.49564         0.28718
C          6.17231        10.64770         0.50521
C          6.15820        12.08681         0.45206
C          7.39985         9.92453         0.30062
C          7.38395        12.82661         0.31398
C          6.18482        14.96754         0.37334
C          6.15841        16.38931         0.27503
C          7.38291        14.22992         0.26368
C          7.37017        17.11759         0.02581
C          6.09624        19.22112        -0.00446
C          7.33564        18.54527        -0.12967
C          8.71890         2.07502         0.70715
C          8.61625         3.48353         0.35597
C          9.92621         1.40766         0.56890
C          9.78599         4.11852        -0.27121
C          8.54927         6.33777        -0.03572
C          8.58225         7.77510         0.02024
C          9.71755         5.60128        -0.55973
C          9.78286         8.48344        -0.23257
C          8.61216        10.61757         0.06193
C          8.70347        12.09900         0.36396
C          9.78222         9.89176        -0.23778
C          9.79280        12.83756        -0.38164
C          8.69927        14.97532         0.27943
C          8.59646        16.42557        -0.13362
C          9.82812        14.21866        -0.38413
C          9.73421        17.11856        -0.55546
C          8.54216        19.24452        -0.37690
C          9.74834        18.55668        -0.60219
C         11.13848         2.07599         0.16845
C         11.09536         3.44670        -0.20337
C         12.36974         1.39404         0.17645
C         12.29593         4.17658        -0.43648
C         10.98286         6.35489        -0.96451
C         11.08727         7.71662        -0.25069
C         12.27457         5.57496        -0.73946
C         12.26858         8.49821        -0.76736
C         10.97931        10.60433        -0.76387
C         10.96269        12.10207        -0.87489
C         12.27617         9.87803        -0.83726
C         12.22417        12.83698        -1.02263
C         10.98024        14.92162        -0.85237
C         10.92054        16.37802        -1.01143
C         12.21040        14.22980        -1.08322
C         12.22798        17.14874        -1.17161
C         10.99352        19.25372        -0.72069
C         12.22284        18.59263        -0.84837
C         13.58576         2.07757        -0.08042
C         13.54824         3.49150        -0.32831
C         14.82784         1.39954        -0.07147
C         14.77613         4.21428        -0.42503
C         13.49076         6.28582        -0.81283
C         13.46445         7.73320        -1.27116
C         14.71503         5.63228        -0.61233
C         14.74949         8.50284        -1.09910
C         13.48255        10.61367        -1.08936
C         13.52823        12.10551        -0.84052
C         14.72143         9.93528        -1.17897
C         14.67323        12.79095        -1.58654
C         13.47666        14.97347        -1.19590
C         13.49077        16.39121        -1.10144
C         14.69894        14.27857        -1.29383
C         14.70335        17.09963        -0.99493
C         13.46626        19.24376        -0.72915
C         14.69706        18.54216        -0.81792
C         16.05168         2.09425        -0.25026
C         16.01535         3.51497        -0.36476
C         17.30058         1.40584        -0.31984
C         17.32031         4.26856        -0.34518
C         15.99117         6.42161        -0.46621
C         15.95000         7.82373        -1.01965
C         17.15162         5.61034        -1.05746
C         17.19133         8.52077        -1.11165
C         15.96231        10.66200        -1.17271
C         15.97983        12.09461        -1.27415
C         17.19032         9.93324        -1.13486
C         17.16125        12.81825        -1.17259
C         15.93111        14.97449        -1.22114
C         15.94162        16.39369        -1.04667
C         17.18211        14.25933        -1.19162
C         17.17658        17.10148        -0.94726
C         15.92375        19.21221        -0.68011
C         17.16217        18.52328        -0.74046
C         18.51670         2.07168        -0.65542
C         18.51326         3.48735        -0.84198
C         19.74122         1.38116        -0.82483
C         19.68435         4.16514        -1.23667
C         18.43490         6.38747        -1.16469
C         18.43451         7.78297        -1.20169
C         19.61775         5.62356        -1.52111
C         19.67281         8.51709        -1.28077
C         18.44151        10.63671        -1.11101
C         18.40694        12.09269        -0.73366
C         19.63483         9.95134        -1.20427
C         19.68034        12.83395        -1.03096
C         18.40635        14.97423        -1.08385
C         18.42258        16.41362        -1.02242
C         19.65479        14.25290        -1.01623
C         19.65930        17.14520        -1.00234
C         18.38574        19.19753        -0.55037
C         19.64157        18.56532        -0.68387
C         20.94138         2.07071        -1.11719
C         20.91389         3.48478        -1.34171
C         22.18722         1.37569        -1.15551
C         22.18685         4.19419        -1.79169
C         20.94988         6.40826        -1.59834
C         20.91163         7.83600        -1.29598
C         22.20225         5.67103        -1.44157
C         22.15005         8.50070        -1.03884
C         20.94430        10.67091        -1.39162
C         20.89305        12.14358        -1.06180
C         22.07198         9.95994        -0.65261
C         22.11829        12.84106        -0.93154
C         20.87997        14.96270        -0.99950
C         20.88040        16.39244        -1.09291
C         22.11999        14.25933        -0.91513
C         22.14445        16.99632        -1.26208
C         20.79571        19.33241        -0.28871
C         22.11028        19.03893        -0.68242
C         23.41951         2.06700        -1.19665
C         23.44572         3.48799        -1.33678
C         24.66066         1.37887        -1.06555
C         24.65262         4.18044        -1.18642
C         23.37011         6.37690        -1.24877
C         23.35461         7.80959        -1.04813
C         24.66855         5.65524        -1.31831
C         24.66468         8.57683        -1.10111
C         23.37398        10.70604        -0.77082
C         23.35665        12.11626        -0.76044
C         24.58087        10.00174        -0.60699
C         24.57217        12.82467        -0.57627
C         23.36061        14.96496        -0.79422
C         23.37564        16.38528        -0.89843
C         24.58102        14.25408        -0.61100
C         24.56848        17.14309        -0.64418
C         23.35856        19.34523        -0.12092
C         24.55545        18.57233        -0.35875
C         25.86299         2.06366        -0.96820
C         25.87806         3.48744        -0.94792
C         27.15099         1.27856        -0.98026
C         27.10359         4.20072        -0.62207
C         25.93945         6.39584        -0.95875
C         25.86091         7.81754        -0.58414
C         27.10643         5.61121        -0.53153
C         26.96028         8.45532        -0.03064
C         25.74719        10.67982        -0.22422
C         25.76386        12.10731        -0.24784
C         26.81528         9.87538         0.50097
C         26.96674        12.84104        -0.05951
C         25.79428        14.97575        -0.47265
C         25.78889        16.41070        -0.46780
C         27.01251        14.24573        -0.24049
C         27.02488        17.09240        -0.26380
C         25.78550        19.20371        -0.09873
C         27.02900        18.51872        -0.13435
C         28.34845         2.03230        -0.44247
C         28.29592         3.47983        -0.29019
C         29.48196         1.33163        -0.17871
C         29.47264         4.18646         0.08023
C         28.25249         6.32698        -0.08431
C         28.17301         7.72757         0.17713
C         29.46676         5.60348         0.14952
C         29.38942         8.41731         0.62482
C         28.12102        10.66611         0.68630
C         28.17574        12.13468         0.39998
C         29.41647         9.91210         0.80773
C         29.48071        12.80825         0.24532
C         28.25701        14.93879        -0.16786
C         28.26387        16.37234        -0.20706
C         29.49434        14.20979         0.00930
C         29.48151        17.08477        -0.15499
C         28.25578        19.20078         0.01626
C         29.49032        18.50602        -0.02039
C         30.69148         1.97172         0.43498
C         30.72692         3.46775         0.24356
C         31.98961         1.29331         0.09931
C         31.92601         4.13393         0.32012
C         30.68170         6.33483         0.41596
C         30.66736         7.70462         0.50293
C         31.96355         5.58351         0.72379
C         31.91702         8.44950         0.90683
C         30.69460        10.64706         0.61321
C         30.68514        12.07779         0.39404
C         31.89503         9.94647         0.64936
C         31.92766        12.77805         0.34871
C         30.73018        14.90160        -0.00666
C         30.77382        16.35679        -0.39831
C         31.93998        14.20343         0.19997
C         31.98273        17.07807         0.13379
C         30.72482        19.19813         0.12271
C         31.95913        18.50360         0.25283
C         33.17948         1.97617         0.01844
C         33.18699         3.44342         0.10921
C         34.42694         1.28354        -0.17951
C         34.33266         4.15113        -0.17039
C         33.16325         6.33274         0.24422
C         33.13829         7.82120         0.21227
C         34.32391         5.64784        -0.40548
C         34.45335         8.44309         0.74273
C         33.15255        10.63624         0.54218
C         33.15857        12.06205         0.43553
C         34.39715         9.94175         0.51077
C         34.39405        12.77575         0.44620
C         33.17947        14.92094         0.32006
C         33.17649        16.36192         0.35149
C         34.39637        14.21390         0.49516
C         34.38858        17.06065         0.63791
C         33.16283        19.19023         0.53698
C         34.38315        18.49420         0.71597
C         35.61656         1.96434        -0.39883
C         35.56190         3.43477        -0.54940
C         36.87725         1.31735        -0.51527
C         36.86447         4.20501        -0.56784
C         35.64989         6.33654        -0.09876
C         35.67544         7.75539         0.16640
C         36.85818         5.64835        -0.23969
C         36.84863         8.45800         0.05899
C         35.58882        10.65020         0.35241
C         35.62100        12.07267         0.41331
C         36.83981         9.92860         0.07283
C         36.87270        12.77540         0.56659
C         35.61133        14.90497         0.74119
C         35.60364        16.34049         0.85450
C         36.85148        14.18352         0.83453
C         36.79101        17.03404         1.15767
C         35.59874        19.17308         0.97204
C         36.80435        18.46452         1.18931
C         38.09283         2.02315        -0.52522
C         38.11979         3.45235        -0.42860
C         39.35193         1.32436        -0.50813
C         39.31573         4.14389        -0.19112
C         38.11493         6.30735        -0.09493
C         38.15694         7.79760        -0.30049
C         39.32106         5.58219        -0.01669
C         39.33908         8.48554         0.35394
C         38.14828        10.66386         0.20262
C         38.10310        12.08163         0.61036
C         39.36634         9.86196         0.48350
C         39.30764        12.73785         0.94913
C         38.05315        14.84961         1.15337
C         37.99707        16.27276         1.64198
C         39.28574        14.15193         1.19381
C         39.29389        17.01709         1.47197
C         38.03552        19.14441         1.39386
C         39.27197        18.44219         1.45849
C         40.53115         1.99513        -0.34005
C         40.55642         3.41979        -0.15221
C         41.74611         4.12207         0.06320
C         40.55342         6.24453         0.29826
C         40.49090         7.65443         0.86748
C         41.73149         5.50492         0.32596
C         41.77420         8.43945         0.84389
C         40.56177        10.57072         0.86627
C         40.54286        11.99232         1.05348
C         41.77594         9.79624         0.92889
C         41.71071        12.71692         1.38800
C         40.51543        14.85184         1.44121
C         40.51740        16.31527         1.48783
C         41.69680        14.10074         1.55074
C         41.72366        17.05477         1.48442
C         40.50475        19.14796         1.47502
C         41.70772        18.45260         1.48966
O         27.99228        11.60545         1.81022
O         10.65679        11.21201        -2.07178
O          9.39841         4.63630        -1.62272
O         22.19497        18.24325        -1.85979
O         36.13656         3.90834        -1.83270
O         20.20603         6.00990        -2.81427
O         29.36098         9.05787         2.01677
O         37.54978        10.46826        -1.13304
O         25.55116         6.13510        -2.39469
O         11.40549        16.82264        -2.33428
O         17.65644         4.51485         1.07265
H         17.67668         3.64133         1.51935
O         13.84338        12.25054         0.58780
H         13.18092        11.74457         1.10343
O         40.19289         7.42150         2.30460
H         40.20306         8.29720         2.74730
O         16.78833         5.26116        -2.41942
H         16.71763         6.08679        -2.94351
O         30.52478         1.79503         1.89863
H         31.19511         2.36425         2.33553
O         10.84417         6.63616        -2.38138
H         10.41348         5.84298        -2.77996
O         32.05051         5.53048         2.20379
H         32.07290         6.47139         2.52041
O         33.02675         8.22597        -1.18708
H         33.46310         7.52933        -1.73981
O         27.41687         0.87629        -2.34199
H         27.45231         1.68382        -2.89522
O         13.30911         7.67575        -2.73370
H         12.38944         7.34490        -2.91052
O         22.18769         4.12900        -3.25491
H         21.43354         4.69451        -3.55298
O         16.16542         6.66522         0.95747
H         16.61599         5.88166         1.35820
O          9.14546        12.16173         1.77749
H          9.13743        13.12194         2.02693
O         30.94427        16.35894        -1.87991
H         31.79664        15.91160        -2.07094
O         38.36060         7.96627        -1.74960
H         38.17048         8.92060        -1.93918
O          9.06646        15.00568         1.72223
H          9.84954        15.58989         1.81646
O         26.25460         9.69114         1.83603
H         26.61441        10.42367         2.39107
O         21.27641        10.58478        -2.80561
H         20.54968        10.99142        -3.32135
O         37.79912        16.16145         3.11484
H         37.77802        17.07718         3.46733
O         18.33296        12.08095         0.74213
H         18.20766        13.00839         1.03585
O          2.43895        13.95640        -1.31584
H          2.39259        14.84063        -1.73906
O         34.15987         5.80673        -1.87852
H         34.88218         5.25572        -2.28131
O         21.72534        10.00082         0.76132
H         22.47781         9.64004         1.27550
O          5.66389         3.12425        -0.64158
H          6.39055         2.65995        -1.11010
O         24.92516         8.75571        -2.53826
H         25.10510         7.85087        -2.90217
O         31.98095         8.28948         2.36725
H         31.09621         8.60970         2.69106
O          4.99705        14.34414         2.32192
H          5.88975        14.03499         2.59063
O         34.59680         8.23107         2.16636
H         33.75148         8.48677         2.60767
O         14.40910        12.63197        -3.00443
H         15.08959        13.12944        -3.50308
O         11.37563         7.37625         1.14440
H         11.42667         8.20782         1.66086
H          0.92224         1.70753         3.57724
H          0.77322         4.12686         3.13829
H          2.98528         0.43293         3.01707
H          0.62323         5.96818         2.62264
H          0.52300         8.35830         2.18094
H          0.40024        10.19294         1.59454
H          0.32594        12.56474         1.02993
H          0.21513        14.45313         0.47503
H          0.26264        16.89576         0.54933
H          1.48680        19.02868         0.28188
H          5.32404         0.42548         2.33684
H          3.62186        20.28762         0.13201
H          7.65468         0.38341         1.59550
H          6.06645        20.31514        -0.11631
H          9.98690         0.34546         0.84880
H          8.52975        20.34371        -0.41210
H         12.39353         0.32220         0.42227
H         10.98897        20.34634        -0.59073
H         14.84285         0.30892         0.07205
H         13.48722        20.32967        -0.55211
H         17.30930         0.31241        -0.20232
H         15.92707        20.30036        -0.51738
H         19.77132         0.29082        -0.68140
H         18.36130        20.27036        -0.30748
H         22.19079         0.28248        -1.03217
H         20.62179        20.17698         0.39509
H         24.66015         0.27887        -1.04589
H         23.44221        20.19829         0.56935
H         27.01893         0.33066        -0.39823
H         25.78949        20.28263         0.11773
H         29.49281         0.24082        -0.32696
H         28.25485        20.29407         0.13901
H         31.99258         0.19389         0.03734
H         30.71502        20.29368         0.22026
H         34.42717         0.18374        -0.14411
H         33.15139        20.28714         0.61983
H         36.90527         0.21749        -0.48911
H         35.60697        20.27259         1.00344
H         39.34708         0.23039        -0.62125
H         38.04541        20.24409         1.39971
H         41.48435         1.44635        -0.32692
H         42.70152         3.57808         0.08555
H         42.68318         5.98816         0.58652
H         42.73295         7.90455         0.89625
H         42.74010        10.31797         1.01060
H         42.66814        12.19172         1.50384
H         42.64766        14.60340         1.77488
H         42.69196        16.53681         1.47662
H         40.49676        20.24720         1.46516
H         42.65842        19.00410         1.49526
