         260
 CSIRO Nanostructure Databank - Neutral Graphene Oxide Data Set
C         30.40431        32.17742        -1.23312
C         30.28092        33.08156        -0.35486
C         30.45333        36.02875         1.35415
C         30.40667        37.29088         1.60785
C         30.25996        40.41013         0.42697
C         30.30605        41.63144         0.18564
C         32.85781        29.65553        -2.58784
C         31.75046        30.29168        -2.46341
C         32.87043        32.01126        -1.21668
C         31.47570        31.40338        -1.68914
C         32.71570        33.24933        -0.29915
C         31.38404        33.98837        -0.00047
C         32.73739        35.86290         0.99093
C         31.41983        35.13879         0.92415
C         32.72622        37.37966         0.82126
C         31.35315        38.06872         0.61419
C         32.58747        40.14017        -0.24698
C         31.49248        39.58903         0.79703
C         32.60010        41.66377        -0.52891
C         31.34278        42.46433        -0.32271
C         32.68670        44.38847        -0.63022
C         31.55031        43.81986        -0.50573
C         35.43789        27.58725        -1.92760
C         34.71009        28.60927        -1.22487
C         33.85637        29.62892        -1.56894
C         35.11868        31.39617        -0.02349
C         33.85116        30.90999        -0.73143
C         35.17680        32.84684         0.45242
C         33.92534        33.66255         0.49557
C         35.19362        35.85717         0.16500
C         34.01548        35.14376         0.77241
C         35.17051        37.32782        -0.12821
C         33.98360        38.09425         0.39995
C         35.24690        40.28622        -0.05787
C         33.95365        39.58624         0.16986
C         35.24582        41.74128        -0.36939
C         33.97127        42.42288        -0.64280
C         35.20716        44.57136        -0.27646
C         33.98226        43.90778        -0.54628
C         35.39874        45.98335        -0.12781
C         37.72408        27.19076        -0.87376
C         36.59864        27.18113        -1.80930
C         37.76923        28.53874        -0.13951
C         36.53179        29.30336        -0.01578
C         37.66231        31.46593         0.25918
C         36.43853        30.68211        -0.01175
C         37.70914        32.93000        -0.13074
C         36.47383        33.62970         0.41750
C         37.75260        35.77447        -0.34166
C         36.49422        35.12059         0.27266
C         37.71199        37.28764        -0.00779
C         36.50480        38.03873        -0.61711
C         37.77316        40.19785         0.24415
C         36.55920        39.59881        -0.43368
C         37.73018        41.65867        -0.20110
C         36.41680        42.42816        -0.11273
C         37.64720        44.56213         0.39935
C         36.41419        43.86689        -0.05984
C         37.67296        46.10038         0.54665
C         36.42602        46.66757         0.01215
C         40.24063        24.56997        -0.07463
C         38.94448        24.84640         0.07068
C         40.38944        27.22129         0.63218
C         38.46147        25.91792        -0.67522
C         40.27021        28.62230         0.14482
C         38.96515        29.23926         0.08300
C         40.23234        31.44660         0.24125
C         38.96451        30.69834         0.34538
C         40.28574        32.95583         0.19423
C         38.96592        33.66874         0.28162
C         40.17407        35.79751         0.52733
C         39.00120        35.07767         0.23826
C         40.29668        37.24784         0.08534
C         38.97958        38.01766         0.28357
C         40.27241        40.21082         0.14339
C         38.95869        39.51253         0.24565
C         40.24861        41.72471         0.05452
C         38.94853        42.45659         0.18765
C         40.17167        44.61141         0.74776
C         38.93288        43.80675         0.34902
C         40.14637        46.02381         0.02795
C         38.96473        46.88222         0.66992
C         40.12049        48.82376        -0.33307
C         39.10240        48.17610        -0.07727
C         42.86702        24.49401         0.24952
C         41.51342        24.93924         0.15558
C         42.81287        27.17011         0.74998
C         41.61061        26.49928         0.06332
C         42.73292        28.65789         0.58031
C         41.45208        29.34397         0.21367
C         42.66154        31.49284         0.70863
C         41.43273        30.78752         0.21232
C         42.58800        32.85337         1.32858
C         41.25861        33.59779         1.23598
C         42.71880        35.79373         1.12780
C         41.43419        35.04439         0.81555
C         42.44831        37.23681         1.35372
C         41.45325        37.96921         0.78330
C         42.82011        40.27140         0.76382
C         41.55069        39.45340         0.52064
C         42.87495        41.61612        -0.00284
C         41.55971        42.44836         0.13835
C         42.83674        44.65698         0.28074
C         41.55433        43.90781         0.55830
C         42.71340        45.95794        -0.49028
C         41.50218        46.78542        -0.00121
C         42.72379        48.73705        -0.91106
C         41.49147        48.31169        -0.22679
C         43.95378        25.11082         0.25976
C         45.34695        27.30864         0.42577
C         44.20921        26.44591         0.93080
C         45.28375        28.67641         0.23480
C         43.98888        29.39304         0.24315
C         45.21094        31.61106         0.67538
C         43.96693        30.89784         0.29255
C         45.08498        32.72223         1.45059
C         43.87441        33.55146         1.83559
C         45.43712        35.95585         1.49341
C         44.06240        35.14663         1.57955
C         45.42939        37.42176         1.05991
C         44.38863        38.26174         1.39135
C         45.38720        40.29603         0.35392
C         44.21047        39.66709         0.99187
C         45.38301        41.65738         0.03109
C         44.13872        42.40115         0.33403
C         45.47573        44.61277        -0.07437
C         44.15915        43.88691         0.24362
C         45.25117        46.04972        -0.57266
C         44.05565        46.69290        -0.62502
C         43.77733        48.07610        -0.87417
C         47.68689        27.50345         0.01368
C         46.68589        26.79273         0.24284
C         47.82459        28.88265        -0.24946
C         46.43226        29.55356        -0.30643
C         47.83186        31.74526         0.22389
C         46.53386        30.94670         0.38916
C         47.94080        33.23657         0.49892
C         47.05944        33.87022         1.33608
C         48.14410        36.15759         1.20363
C         46.89965        35.34545         1.49820
C         47.91919        37.56292         0.73079
C         46.62378        38.10641         0.57403
C         47.71310        40.16643        -0.30222
C         46.55734        39.49852         0.20401
C         47.53633        41.42670        -0.92099
C         46.47952        42.29053        -0.61667
C         47.84745        44.51953        -1.29375
C         46.51200        43.75600        -0.92316
C         47.63552        45.96099        -1.06190
C         46.54407        46.53814        -0.95562
C         50.24585        29.19592        -0.79426
C         48.92961        29.62201        -0.57904
C         50.12350        31.88693        -1.08412
C         48.78264        31.14270        -0.86224
C         50.32927        33.28585        -0.51778
C         49.28009        33.93044         0.35980
C         50.76992        36.07709         0.48890
C         49.45732        35.38229         0.83779
C         51.02667        37.39197         0.81752
C         49.00671        38.45866         0.74752
C         50.19505        40.56987         0.20313
C         49.03159        39.71728         0.08778
C         50.45069        41.87174        -0.33452
C         49.42041        42.56093        -1.06961
C         50.31773        44.57255        -0.46637
C         49.19273        43.94609        -1.07034
C         51.26630        29.71898        -1.33342
C         52.43072        31.97967        -1.73505
C         51.36565        31.10102        -1.52167
C         52.63713        33.16651        -1.38156
C         51.74532        33.83089        -0.42174
C         53.08263        36.07455        -0.30651
C         51.93885        35.23149         0.06621
C         53.15826        37.29651        -0.12516
C         52.21724        38.19040         0.47934
C         53.09851        40.62290         0.26723
C         52.24908        39.55557         0.68916
C         52.78318        41.84418         0.25786
C         51.66063        42.65039        -0.01511
C         51.42483        44.03319        -0.17891
O         46.90953        44.05607        -2.28868
O         41.13157        39.64427        -0.88210
O         43.83043        30.21913        -0.97646
O         36.71427        34.48588         1.56350
O         48.53550        41.79482        -1.82669
O         42.47186        31.64818         2.15725
O         52.22888        34.07687         0.90204
O         39.07677        26.81721        -1.48930
O         40.87610        42.30019        -1.15071
O         34.36635        32.93440         1.66735
O         46.20266        33.15532         2.16234
O         34.67692        40.18629         1.29371
O         42.35313        44.49370         1.63345
O         47.57397        30.94155         1.40719
O         44.70081        35.74408         2.72452
O         37.43857        45.26651         1.69377
O         36.81342        40.19259        -1.80534
O         49.73836        34.25742         1.71053
O         35.29381        28.62874         0.05551
O         42.41625        35.34887        -0.24302
O         32.24694        34.33800        -1.15090
O         37.75505        35.57943        -1.72776
O         43.35696        37.84390         2.22507
O         34.81026        36.34154        -1.15451
O         41.75286        47.72758         1.07031
O         39.66557        26.78837         1.50642
O         49.90366        33.09327        -1.89796
O         33.24192        41.90359        -1.81548
O         34.00904        30.70965         0.66883
O         44.25922        43.17004         1.54216
O         42.57691        28.01394         1.89682
O         38.09423        37.53482         1.36119
O         38.23496        31.15531         1.55442
O         47.71007        35.91280         2.57267
O         51.06159        40.13504         1.22810
O         37.77611        41.33522        -1.66597
O         43.44688        40.39907         2.04435
O         50.05594        38.04932         1.56274
O         33.59898        35.47482         2.11580
O         33.62006        37.92310         1.81240
O         31.89535        39.91933         2.09101
H         31.51630        39.28164         2.73207
O         46.19035        44.76572         1.17173
H         45.69311        44.28705         1.87691
O         40.65555        33.61949         2.52652
H         40.89315        32.78578         2.99116
O         40.85371        33.26288        -1.11396
H         40.13042        33.21625        -1.77788
O         30.87051        37.75964        -0.66437
H         30.23141        38.45068        -0.94324
O         48.09317        31.26050        -2.11389
H         48.45680        32.03197        -2.60338
O         37.68680        32.96661        -1.57793
H         37.70216        33.94822        -1.85473
O         36.57013        37.85552        -2.02012
H         36.89903        36.92564        -2.20908
O         46.15764        29.77316        -1.69353
H         45.90634        28.92480        -2.11253
O         32.29620        39.53372        -1.51184
H         32.69582        40.10153        -2.21281
O         39.74726        45.78090        -1.32693
H         40.51902        45.41535        -1.82499
O         43.09884        41.31601        -1.38892
H         42.23025        41.05737        -1.78795
O         42.39106        45.51923        -1.84830
H         42.57338        46.26188        -2.46512
O         40.52441        37.18603        -1.33920
H         41.24726        36.53830        -1.49991
O         33.50516        32.49386        -2.40500
H         33.05401        33.32529        -2.67957
O         41.79003        26.85322        -1.31591
H         40.99841        26.57907        -1.82959
O         43.75975        33.46648         3.26181
H         44.54382        33.90966         3.65691
O         44.44587        26.25814         2.30818
H         43.70237        25.75917         2.70440
O         39.99759        44.76615         2.15872
H         40.82934        45.13254         2.53827
O         39.21561        47.16135         2.02470
H         38.61523        46.61332         2.57818
