         300
 CSIRO Nanostructure Databank - Neutral Graphene Oxide Data Set
C         30.38554        31.46151        -0.88365
C         30.29802        32.68971        -0.74011
C         30.33648        35.87730         0.29915
C         30.55667        36.93766         0.88638
C         30.71322        40.05366         1.80036
C         30.58384        41.27563         1.91261
C         32.90337        28.79993        -1.76919
C         31.84722        29.32479        -1.39772
C         32.73857        31.50805        -1.22215
C         31.58818        30.72909        -1.20279
C         32.63981        33.04469        -1.22570
C         31.37644        33.66696        -0.38249
C         32.52649        35.95117        -0.66981
C         31.13696        35.14930        -0.73740
C         32.57601        37.34465        -0.10937
C         31.66209        37.87304         0.75511
C         32.78623        40.13744         0.66835
C         31.90617        39.17039         1.51109
C         32.66773        41.67728         0.73314
C         31.74311        42.21715         1.92196
C         32.74589        44.32305         1.27589
C         31.70837        43.71063         1.58814
C         35.32859        27.37507        -0.54130
C         35.03285        28.83629        -0.44615
C         34.30436        29.32942        -1.71520
C         35.35393        31.65435        -1.13836
C         34.08621        30.94434        -1.64587
C         35.15450        32.95894        -0.37493
C         33.86534        33.70077        -0.57614
C         35.02933        35.91329         0.08406
C         33.84405        35.21150        -0.55792
C         35.02083        37.40777         0.24452
C         33.82764        38.10158        -0.53261
C         35.38928        40.32921         1.10225
C         33.51159        39.59307        -0.35714
C         35.24981        41.75992         0.72202
C         34.02266        42.42529         0.77667
C         35.26133        44.54593         0.68225
C         34.04164        43.85440         0.83782
C         35.51318        45.92485         0.95319
C         37.75373        27.29991        -0.95822
C         36.36726        26.76411        -0.77015
C         37.67547        28.63524        -0.05542
C         36.45019        29.49829        -0.39938
C         37.80358        31.59057        -0.56771
C         36.51705        30.83203        -0.62895
C         37.75775        33.12334        -0.41690
C         36.42198        33.66774         0.15797
C         37.64134        35.94022         0.29382
C         36.36684        35.20732         0.00449
C         37.63705        37.37155         0.72919
C         36.34282        38.10158         0.58191
C         37.73857        40.26173         0.65282
C         36.40637        39.56611         0.24759
C         37.74626        41.70335         0.10126
C         36.46068        42.44280         0.44094
C         37.69030        44.52464        -0.15441
C         36.45537        43.83297         0.33896
C         37.17435        47.93439         1.24352
C         36.23901        46.86567         1.25021
C         39.87173        24.50009         0.65212
C         38.92235        25.14155         0.17391
C         40.18142        27.18416        -0.04805
C         38.93471        26.45442        -0.49237
C         40.18529        28.67532        -0.09825
C         39.01199        29.35014        -0.16530
C         40.30042        31.43148         0.30602
C         39.05924        30.82751        -0.33446
C         40.20349        32.94807         0.55006
C         38.89550        33.68608         0.47642
C         40.16906        35.91895         0.55747
C         38.85424        35.20026         0.82756
C         40.21672        37.26947         0.43411
C         39.00651        38.09081         0.85928
C         40.26692        40.26138         0.29186
C         38.97379        39.46252         0.18352
C         40.25486        41.62574         0.14120
C         39.02327        42.44434         0.55789
C         40.22516        44.62872         0.05332
C         39.00813        43.89698         0.10623
C         40.23881        46.05812         0.26086
C         38.51904        47.76023         0.93778
C         40.50746        49.07926         0.15039
C         39.43648        48.81036         0.68414
C         42.40926        24.52885         1.46160
C         41.06053        25.07581         1.29318
C         42.56147        27.27480         0.94253
C         41.21676        26.54865         0.85493
C         42.67428        28.71445         0.52871
C         41.55825        29.30383        -0.34222
C         42.85300        31.58006        -0.04286
C         41.57201        30.84524        -0.29624
C         42.77313        33.08094         0.21924
C         41.47042        33.76766         0.46121
C         42.68324        36.08361         0.80662
C         41.42510        35.18448         1.01054
C         42.71291        37.21243        -0.22195
C         41.57352        37.94614         0.48478
C         42.75929        40.21499        -0.17354
C         41.55285        39.48336         0.35700
C         42.64223        41.55945        -0.91183
C         41.31942        42.39566        -0.59639
C         42.57467        44.54314        -0.67852
C         41.44013        43.87406        -0.28512
C         42.53192        46.00517        -0.90922
C         41.40862        46.85248        -0.28689
C         42.84533        48.77172        -0.86778
C         41.79979        48.35847         0.11134
C         43.51047        25.08585         1.42298
C         45.15771        27.12541         0.83595
C         43.83888        26.43121         0.92683
C         45.20408        28.64970         0.94451
C         44.00344        29.43555         0.49811
C         45.25664        31.56849         0.96171
C         44.05624        30.80191         0.37812
C         45.31648        33.06803         0.63332
C         44.04665        33.84090         0.45749
C         45.27836        36.02012         0.79761
C         43.98725        35.24762         1.09496
C         45.25376        37.39729         0.23258
C         43.99800        37.97915        -0.32964
C         45.19494        40.27250         0.21443
C         44.07613        39.49884        -0.54378
C         45.17404        41.75119        -0.04648
C         43.96527        42.35964        -0.74811
C         45.07908        44.67790        -0.28564
C         43.89809        43.84683        -0.77342
C         45.12664        45.92024        -1.25026
C         43.83460        46.62106        -1.43993
C         43.66123        48.07176        -1.45926
C         47.50834        27.23447         1.03061
C         46.46447        26.54384         1.21759
C         47.82033        28.57846         0.87628
C         46.54886        29.36340         1.02511
C         47.86226        31.53892         0.89799
C         46.56417        30.81751         0.55157
C         47.88744        33.03157         0.85084
C         46.59138        33.80291         0.99455
C         47.71959        35.87567        -0.06872
C         46.60539        35.28787         0.83825
C         47.80938        37.40949        -0.01301
C         46.53570        38.16671         0.02688
C         47.78609        40.33547         0.51077
C         46.46685        39.54594         0.68313
C         47.75495        41.77225        -0.08064
C         46.43898        42.55314         0.03739
C         47.66015        44.73297        -0.02405
C         46.39626        43.91798        -0.12836
C         47.49244        46.04192        -0.67285
C         46.46878        46.48315        -1.19512
C         50.32610        28.66147         0.04125
C         49.09750        29.24425         0.62713
C         50.25121        31.48659        -0.12416
C         49.13957        30.75337         0.63189
C         50.37063        32.96800         0.30092
C         49.00485        33.66377         0.00163
C         50.23065        35.84910        -0.23096
C         49.07062        35.18863         0.06850
C         50.23734        37.35525        -0.31502
C         49.11796        38.02321         0.48691
C         50.29962        40.30151        -0.15484
C         49.08554        39.57370         0.41841
C         50.26761        41.80987        -0.22346
C         49.08122        42.53899         0.43329
C         50.26994        44.57389        -0.30423
C         48.98767        44.06992         0.16628
C         51.35916        29.29491        -0.23202
C         52.71170        31.55674        -0.58733
C         51.86026        30.62558         0.16900
C         52.60208        32.79818        -0.61964
C         51.52009        33.71394        -0.41064
C         52.49834        35.99423        -0.90410
C         51.47173        35.07510        -0.50741
C         52.65900        37.21863        -0.75538
C         51.50460        38.13245        -0.63256
C         52.69315        40.42071        -0.68487
C         51.64635        39.51912        -0.04780
C         52.62340        41.67106        -0.68257
C         51.57451        42.57665        -0.48071
C         51.33912        43.95266        -0.56200
O         47.74285        41.70826        -1.45993
O         37.59667        45.51439        -0.89206
O         50.01179        40.99310        -1.39022
O         40.71130        42.42541        -2.05025
O         36.82055        37.71345         1.89531
O         41.42177        46.52500        -1.71364
O         50.48261        37.95616        -1.62487
O         48.60816        33.39556        -1.33540
O         39.31116        33.03473         1.71086
O         48.63611        40.13822         1.67491
O         47.26727        38.06403        -1.20366
O         38.72029        31.24403        -1.68656
O         46.76087        34.68656         2.15354
O         43.35732        37.28932        -1.49296
O         45.77762        29.06967         2.23182
O         42.48910        40.18687         1.23981
O         48.07438        32.30548         2.11043
O         34.64132        36.52924         1.34477
O         44.24124        43.09713        -1.97615
O         40.74242        26.14829         2.18652
O         42.02134        33.73857        -0.87343
O         34.37673        31.47474        -3.01253
O         42.26393        37.27603         1.74992
O         42.44426        28.34070         1.92996
O         42.30272        31.36642        -1.41318
O         49.53794        30.02861         1.83343
O         45.20505        37.17435         1.69335
O         44.92358        33.56708        -0.68303
O         37.20145        35.75826        -1.06468
O         35.03168        39.90367         2.19473
O         48.32302        44.74392         1.27039
O         39.09622        46.49007         0.84747
O         44.53128        26.56757        -0.33762
O         34.14171        32.98782         0.67530
O         40.08414        26.56225        -1.38129
O         44.74656        41.19387         1.24662
O         33.37315        35.77034        -1.82193
O         44.42615        45.85452        -2.50162
O         35.65895        32.04594        -2.55244
O         34.07815        37.93327        -1.89305
O         31.63873        33.60871         0.99224
H         31.75297        32.67837         1.27585
O         50.62273        33.06015         1.69908
H         51.39155        32.48593         1.92281
O         32.41481        42.08100         3.14253
H         31.77844        42.15132         3.88274
O         50.04439        31.35602        -1.49215
H         49.57006        32.18054        -1.82747
O         46.32231        39.32336         2.09195
H         45.77445        40.05104         2.46248
O         34.28778        29.22318         0.69001
H         34.61164        28.72490         1.46837
O         39.25291        38.25753         2.27142
H         39.08922        37.37905         2.69229
O         45.08361        31.58943         2.38272
H         45.21389        30.67805         2.74411
O         36.73761        49.20197         1.42744
H         35.76607        49.21767         1.53344
O         39.07539        42.58961         1.99359
H         38.75840        41.74192         2.40225
O         32.47860        33.45975        -2.58242
H         33.14678        32.98249        -3.13265
O         37.94018        27.67354        -2.29564
H         38.77235        27.27198        -2.63369
O         30.55523        35.28966        -2.00511
H         31.10370        34.79784        -2.65863
O         43.99617        34.97318         2.50354
H         44.36755        35.76303         2.95700
O         36.20071        39.62439        -1.15914
H         36.45327        40.50956        -1.51038
O         49.29351        42.43667         1.83254
H         48.73536        43.10551         2.28822
O         40.38306        30.82503         1.62931
H         39.85184        31.37390         2.25304
O         46.57523        30.72305        -0.89142
H         46.81392        31.59534        -1.28066
O         42.55760        41.17963        -2.28794
H         43.06311        41.83763        -2.81976
O         51.94610        39.41616         1.33159
H         52.66209        38.75881         1.46193
O         37.74067        40.36430         2.08299
H         37.64677        39.45196         2.46409
O         41.90753        28.88691        -1.67718
H         42.23499        29.68119        -2.16548
O         37.95665        33.63987        -1.73074
H         38.45560        32.97418        -2.25902
O         33.88084        40.34443        -1.42322
H         34.21620        39.66764        -2.08378
O         41.29161        35.02255         2.43866
H         41.54595        35.88616         2.84485
O         49.31336        37.64228         1.85369
H         48.82083        38.28753         2.41413
O         38.88131        39.15616        -1.21950
H         38.66460        39.98588        -1.70862
O         39.67266        43.40334        -2.20558
H         40.13329        44.19597        -2.58233
O         47.22280        35.57480        -1.38600
H         47.64177        34.71799        -1.69189
O         37.52895        28.16121         1.29805
H         37.75622        28.88090         1.92261
O         42.35387        48.28284         1.40436
H         42.57898        49.18301         1.71838
O         36.49016        33.36883         1.56065
H         35.59669        33.51790         1.94666
O         32.51943        38.82958         2.74431
H         33.30945        39.39761         2.89453
O         37.81166        41.63624        -1.34923
H         38.26257        42.44027        -1.71284
O         44.43860        39.68198        -1.91344
H         43.99434        38.99363        -2.45657
O         52.15686        30.66289         1.51795
H         51.48234        30.12441         2.00123
O         38.65650        35.34343         2.25841
H         39.30567        34.74266         2.70103
O         35.10543        29.02635        -2.81054
H         34.80488        29.53667        -3.59293
O         32.02165        42.11947        -0.46810
H         32.45986        41.67519        -1.22841
O         44.71184        45.20935         1.00559
H         45.51878        45.53678         1.45742
