         404
 CSIRO Nanostructure Databank - Neutral Graphene Oxide Data Set
C          1.55870         1.99984         1.29816
C          1.54804         3.35481         1.48676
C          2.76136         1.30059         1.02470
C          2.80248         4.09967         1.62650
C          1.59594         6.28779         1.87022
C          1.55008         7.65713         1.88895
C          2.76464         5.57923         1.42701
C          2.60860         8.45541         1.35013
C          1.49784        10.58531         2.01336
C          1.54348        11.94741         2.18301
C          2.58994         9.84582         1.45145
C          2.74581        12.70295         1.96897
C          1.69743        14.88856         2.59688
C          1.80884        16.24729         2.87817
C          2.84019        14.09871         2.31217
C          3.06176        16.87545         2.96773
C          3.17443        18.30041         3.18475
C          4.01054         1.92245         0.93610
C          4.11890         3.35472         1.36699
C          5.04667         1.18093         0.27826
C          5.24038         4.22887         0.90572
C          3.82896         6.27798         0.87963
C          3.65040         7.73593         0.50437
C          5.08273         5.61337         0.59936
C          4.96496         8.47066         0.33709
C          3.71659        10.65368         0.91632
C          3.87862        12.03486         1.44357
C          4.91657         9.95611         0.32362
C          5.14471        12.65774         1.45014
C          4.13377        14.71060         2.36479
C          4.25982        16.10191         2.76671
C          5.27383        13.95880         2.01216
C          5.50181        16.72743         2.89084
C          4.37095        18.90153         3.38619
C          5.63181        18.09564         3.50540
C          6.39744         1.54272         0.31553
C          6.50745         3.67896         0.74695
C          7.45574         1.22845        -0.54342
C          7.55588         4.27885         0.00729
C          6.21333         6.34273         0.13898
C          6.11374         7.78796         0.01329
C          7.43845         5.68533        -0.20318
C          7.29757         8.51111        -0.51009
C          6.19031        10.69771         0.31642
C          6.31009        11.97508         0.88867
C          7.33558        10.04239        -0.31949
C          7.56272        12.63981         0.85921
C          6.61428        14.51267         2.28260
C          6.74724        15.97226         2.69387
C          7.79649        13.82999         1.67445
C          7.99756        16.71105         2.38869
C          6.84611        18.81834         2.99850
C          7.99570        18.15137         2.56275
C          8.62485         2.05004        -0.69625
C          8.65667         3.51785        -0.52730
C          9.75478         1.39253        -1.20817
C          9.71049         4.25356        -1.11630
C          8.59690         6.39858        -0.66880
C          8.58337         7.82959        -0.69458
C          9.74438         5.68576        -1.09913
C          9.76885         8.55871        -0.91627
C          8.65530        10.67222        -0.29711
C          8.66368        12.09771         0.05929
C          9.80934         9.99129        -0.67482
C          9.99910        12.82210         0.01100
C          9.09545        14.63060         1.53495
C          9.11790        16.07323         1.86181
C         10.16403        14.10758         0.69028
C         10.31203        16.81167         1.55016
C          9.20445        18.86376         2.31524
C         10.36629        18.21168         1.86575
C         10.91487         2.07617        -1.64333
C         10.79043         3.53505        -1.81243
C         12.09875         1.43048        -1.97365
C         12.03977         4.30621        -2.21305
C         10.93529         6.42704        -1.51219
C         10.97173         7.87033        -1.30244
C         12.07484         5.75648        -1.95629
C         12.17793         8.59252        -1.42823
C         11.09716        10.67224        -0.67145
C         11.19190        12.03468        -0.31374
C         12.28189         9.95936        -1.02116
C         12.44765        12.68695        -0.23680
C         11.37295        14.79410         0.57298
C         11.45062        16.19250         0.96554
C         12.51927        14.08311         0.10643
C         12.63146        16.93668         0.68107
C         11.61242        18.89246         1.74055
C         12.74615        18.30055         1.17728
C         13.30590         2.14656        -2.28777
C         13.28872         3.55653        -2.36850
C         14.53695         1.42631        -2.30594
C         14.51833         4.29765        -2.66798
C         13.30374         6.47490        -2.33588
C         13.36332         7.96874        -2.03518
C         14.58725         5.75154        -2.46487
C         14.69173         8.58944        -1.89839
C         13.55950        10.61871        -0.98507
C         13.62517        11.96002        -0.55845
C         14.77063         9.92784        -1.41771
C         14.91702        12.65169        -0.41930
C         13.74101        14.79520        -0.02949
C         13.73067        16.22189         0.08609
C         14.93841        14.12340        -0.37878
C         14.87250        16.87603        -0.41380
C         14.01837        19.01147         1.29913
C         15.06582        18.84038         0.41920
C         15.79648         2.06572        -2.30080
C         15.84327         3.51136        -2.62765
C         16.97398         1.37129        -2.02404
C         17.05266         4.29408        -2.40608
C         15.80662         6.42702        -2.46851
C         15.86011         7.86609        -2.22071
C         17.06165         5.68103        -2.46844
C         17.12274         8.54342        -2.21896
C         16.01575        10.59278        -1.47458
C         16.16272        11.93995        -0.90081
C         17.17348         9.95129        -1.99135
C         17.29976        12.76168        -1.33248
C         16.13875        14.82989        -0.61572
C         16.12570        16.26139        -0.58436
C         17.31668        14.16169        -1.10209
C         17.33899        17.03708        -0.71725
C         16.46681        19.13137         0.48653
C         17.44310        18.40631        -0.21740
C         18.24423         2.05969        -1.81215
C         18.27286         3.56473        -1.98499
C         19.53219         1.36014        -1.77539
C         19.58387         4.19204        -2.38573
C         18.33575         6.39323        -2.33469
C         18.35420         7.82569        -2.31516
C         19.54136         5.69280        -2.20142
C         19.59513         8.53775        -2.28179
C         18.39434        10.69111        -2.21930
C         18.32513        12.14488        -2.08046
C         19.61064         9.97832        -2.39719
C         19.29535        13.02230        -2.62186
C         18.45929        14.94984        -1.44723
C         18.49712        16.36541        -1.17320
C         19.52016        14.32994        -2.16053
C         19.75608        17.05935        -1.36664
C         18.73466        19.03481        -0.34048
C         19.81473        18.44690        -0.94036
C         20.72246         2.06137        -1.55970
C         20.74810         3.50585        -1.71936
C         21.93612         1.37619        -1.22554
C         21.89277         4.23776        -1.44997
C         20.77093         6.38788        -2.00101
C         20.81067         7.81806        -2.09818
C         21.93857         5.65041        -1.66902
C         22.06507         8.51483        -1.93821
C         20.91521        10.62288        -2.46911
C         21.08929        11.95866        -2.89170
C         22.10607         9.93626        -2.10303
C         22.20624        12.75430        -2.57141
C         20.79387        15.04186        -2.44949
C         20.87801        16.42267        -1.90891
C         22.14207        14.23608        -2.69261
C         22.19950        17.06847        -1.71306
C         21.00987        19.31568        -1.25588
C         22.29490        18.52169        -1.30305
C         23.09091         2.06857        -0.82694
C         23.02226         3.54527        -0.78002
C         24.30156         1.44012        -0.46628
C         24.29326         4.28651        -0.51074
C         23.23240         6.34954        -1.63330
C         23.26401         7.81806        -1.69695
C         24.44717         5.64144        -1.11098
C         24.50412         8.50420        -1.53794
C         23.34644        10.64652        -2.01201
C         23.38254        12.07253        -2.16537
C         24.54751         9.92098        -1.72145
C         24.63366        12.78672        -2.02214
C         23.46197        14.95941        -2.52131
C         23.46703        16.44120        -2.18741
C         24.68323        14.20202        -2.16589
C         24.73493        17.09738        -1.78459
C         23.56737        19.23585        -1.49967
C         24.75548        18.54683        -1.60422
C         25.48783         2.16316        -0.12610
C         25.52732         3.54170        -0.21497
C         26.70624         1.38731         0.33246
C         26.66925         4.36676         0.32255
C         25.66018         6.41434        -0.78900
C         25.69440         7.79787        -1.13944
C         26.77893         5.75189        -0.28762
C         26.93046         8.49476        -1.02827
C         25.80310        10.60747        -1.66054
C         25.83244        12.05160        -1.80414
C         26.97816         9.87079        -1.39072
C         27.04618        12.76894        -1.63513
C         25.88435        14.91347        -1.90296
C         25.90251        16.36991        -1.82833
C         27.06102        14.17213        -1.60002
C         27.19427        17.09405        -1.76350
C         26.02784        19.23609        -1.52709
C         27.22558        18.56031        -1.54929
C         27.97705         2.20307         0.47758
C         27.97216         3.61160         0.37803
C         29.17219         1.52940         0.74569
C         29.16931         4.35635         0.55200
C         28.02049         6.44585        -0.18052
C         28.10793         7.81253        -0.57925
C         29.16351         5.76491         0.33179
C         29.37538         8.50497        -0.50949
C         28.29765        10.49991        -1.52524
C         28.31973        12.02743        -1.60710
C         29.49559         9.83288        -0.99838
C         29.57278        12.67198        -1.23552
C         28.29166        14.86602        -1.13997
C         28.42739        16.32216        -1.42691
C         29.57714        14.11184        -0.94024
C         29.62395        17.05277        -0.91049
C         28.50416        19.21040        -1.34902
C         29.67415        18.52080        -1.08434
C         30.39266         2.22934         0.97309
C         30.39207         3.66498         0.88081
C         31.58783         1.55703         1.31078
C         31.59556         4.36507         1.09827
C         30.34989         6.56066         0.65363
C         30.51110         7.89817         0.06912
C         31.60509         5.83344         1.09035
C         31.76608         8.56738         0.12765
C         30.72625        10.51792        -0.93641
C         30.73615        11.94126        -1.16180
C         31.89641         9.89210        -0.37768
C         32.02300        12.64701        -1.22799
C         30.87811        14.81946        -1.02614
C         30.91448        16.28440        -0.80876
C         32.01684        14.11683        -1.24076
C         32.19802        17.00380        -0.97950
C         30.93942        19.13305        -0.75790
C         32.14329        18.44882        -0.67806
C         32.79400         2.25819         1.55376
C         32.80194         3.69001         1.40410
C         33.97883         1.60642         1.98713
C         33.99593         4.43401         1.65734
C         32.88718         6.54383         1.00465
C         32.93606         7.91920         0.66486
C         34.03913         5.85721         1.42065
C         34.14922         8.65436         0.84273
C         33.13227        10.60349        -0.18214
C         33.26680        11.96650        -0.73362
C         34.22119        10.03416         0.48316
C         34.47359        12.79014        -0.45437
C         33.32111        14.77188        -1.58969
C         33.31164        16.26258        -1.32038
C         34.52100        14.09167        -0.94194
C         34.61401        16.86940        -1.48446
C         33.33576        19.15379        -0.16889
C         34.57160        18.93228        -0.69401
C         35.13636         2.33555         2.32000
C         35.14299         3.76379         2.14389
C         36.30565         1.70917         2.85220
C         36.28817         4.52418         2.53143
C         35.21632         6.61418         1.70761
C         35.27397         8.01520         1.44927
C         36.29488         5.93903         2.34596
C         36.42566         8.79221         1.86055
C         35.36689        10.91433         0.99980
C         35.59133        12.16904         0.18293
C         36.63788        10.16567         1.40523
C         36.84837        12.84706         0.22567
C         35.85448        14.75765        -1.13519
C         35.78933        16.28059        -1.11034
C         36.95512        14.14070        -0.31792
C         37.03821        17.09514        -1.01769
C         35.92533        19.31106        -0.31460
C         37.00955        18.55123        -0.65469
C         37.41819         2.45117         3.24985
C         37.41243         3.88286         3.11450
C         38.59022         1.83675         3.82921
C         38.51039         4.66287         3.59709
C         37.31994         6.72224         2.93330
C         37.28589         8.13494         2.75361
C         38.35866         6.05946         3.63914
C         39.25470         9.08836         2.67366
C         37.88836        10.81857         1.37924
C         38.01743        12.14824         0.77073
C         39.15755        10.17966         1.78059
C         39.26871        12.75997         0.66517
C         38.24723        14.83336        -0.44847
C         38.30894        16.33514        -0.64382
C         39.44086        14.12209         0.10435
C         39.45002        17.05508        -0.00031
C         38.37077        19.21545        -0.70730
C         39.44824        18.46320         0.01986
C         39.69016         2.57274         4.16555
C         39.74471         4.00665         3.98845
C         40.99153         4.63870         3.94772
C         40.35418         7.00572         3.54353
C         40.39556         8.25067         2.79025
C         41.25845         5.96157         3.48603
C         41.55078         8.64504         2.07392
C         40.41780        10.68201         1.34235
C         40.49649        12.07217         0.95617
C         41.57964         9.88243         1.45214
C         41.70320        12.76958         0.99542
C         40.62325        14.90199         0.53775
C         40.55765        16.35733         0.55548
C         41.74127        14.18385         0.91055
C         41.59589        17.09988         1.16133
C         40.48892        19.17476         0.62911
C         41.55513        18.48859         1.21244
O         28.70830        14.46682         0.20380
O         18.17936         3.05732        -0.64432
O          3.85639        10.53281        -0.55570
O          9.02092        12.95816        -1.10364
O         21.35879        14.79758        -3.77143
O         14.72363        18.20553        -0.79843
O         15.18476         3.83210        -3.89151
O          8.88212        13.68006         2.65738
O         24.20419         5.66968        -2.56322
O          6.74642         2.44507         1.34226
O         39.19832        14.15337        -1.36338
O         15.84496        12.01257         0.53373
O         30.13678        16.65340         0.39119
O         22.36776        17.46739        -0.28781
O         38.05251        16.74625        -2.03091
O         38.16328         8.89556         3.53511
O         39.24830         6.82755         4.40958
O         34.60356        18.20029        -1.90101
O         28.48316        11.18162        -2.80338
O         28.14548        16.64240        -2.81709
O         13.10056         7.47238        -3.39486
O         20.07919        12.53089        -3.67184
O          6.98215         9.42065        -1.60488
O         10.99302         3.95192        -3.20125
O         23.58490        15.98255        -3.56480
O         32.94931        12.01926        -2.18527
O         30.71553         6.46171         2.08511
O          3.66560         3.63915         2.72497
O          6.85461        14.87007         3.67789
O         23.27973         4.15664         0.54751
O         26.31187         4.62520         1.72949
H         26.20352         3.75488         2.17027
O          5.84452        17.86518         4.95856
H          6.48953        17.12971         5.04513
O         26.42450         0.79851         1.61464
H         25.52001         0.42371         1.58526
O         36.26393        14.44719        -2.52358
H         37.09463        14.95199        -2.69467
O         34.83684        11.42340         2.28872
H         34.77879        10.66077         2.90402
O          3.06905         7.74131        -0.85186
H          3.10988         8.67780        -1.16285
O         33.48192        14.62824        -3.03015
H         33.57303        13.66169        -3.20591
O         19.70388         3.95365        -3.82760
H         20.52543         4.39014        -4.13766
O         20.80530        19.96319        -2.52607
H         20.57657        19.28269        -3.19238
O         38.33272        20.56587        -0.26608
H         37.89740        21.10771        -0.95380
H          0.60874         1.44949         1.24293
H          0.59230         3.89666         1.49374
H          2.69108         0.23566         0.75892
H          0.77017         5.72410         2.32475
H          0.69590         8.14616         2.37654
H          0.57962        10.05578         2.30113
H          0.65994        12.45359         2.59475
H          0.69625        14.43981         2.54577
H          0.89861        16.84326         3.03826
H          2.24926        18.89674         3.16828
H          4.74467         0.31356        -0.32880
H          4.42999        19.98857         3.54456
H          7.39557         0.32055        -1.16303
H          6.87927        19.91411         3.09933
H          9.74258         0.29378        -1.26466
H          9.23313        19.94565         2.51208
H         12.15485         0.33617        -1.87601
H         11.67822        19.92823         2.10599
H         14.50186         0.33993        -2.13544
H         14.14597        19.65997         2.17903
H         16.94405         0.27545        -1.92939
H         16.80424        20.00053         1.07336
H         19.53463         0.26018        -1.75966
H         18.82006        20.08300        -0.01431
H         21.93629         0.27567        -1.22243
H         21.09706        20.13149        -0.49462
H         24.34183         0.33929        -0.46399
H         23.56218        20.33402        -1.45056
H         26.89990         0.55238        -0.40994
H         26.01468        20.32554        -1.37367
H         29.16623         0.43221         0.82270
H         28.52203        20.31123        -1.36102
H         31.57418         0.46185         1.41719
H         30.94770        20.22014        -0.58358
H         33.97339         0.51356         2.11491
H         33.20331        19.82879         0.68963
H         36.31071         0.61627         2.98044
H         36.11193        20.31382         0.10688
H         38.59634         0.74510         3.96336
H         38.65494        19.20330        -1.80507
H         40.58915         2.06525         4.54681
H         41.87024         3.98485         4.07293
H         42.24101         6.13361         3.02079
H         42.45763         8.02593         2.10621
H         42.52263        10.23947         1.01786
H         42.63587        12.23923         1.22882
H         42.68400        14.69080         1.15705
H         42.44897        16.57667         1.61285
H         40.45066        20.27193         0.64221
H         42.36928        19.04358         1.69838
