         410
 CSIRO Nanostructure Databank - Neutral Graphene Oxide Data Set
C         27.91194        27.34165         0.78930
C         27.90749        28.76808         0.86405
C         26.68369        29.49141         0.91175
C         27.89141        31.61385         0.86630
C         26.67797        30.86679         0.90864
C         27.89005        33.04645         0.79447
C         26.67531        33.79543         0.74193
C         27.90104        35.90903         0.62976
C         26.68032        35.16302         0.65726
C         27.90673        37.32379         0.54552
C         26.68123        38.07275         0.35836
C         27.86992        40.22544         0.75664
C         26.65169        39.42156         0.39360
C         27.85363        41.61977         0.16352
C         26.69606        42.36537         0.09836
C         27.88762        44.49083        -0.16708
C         26.70158        43.77294        -0.09621
C         27.94299        45.91339        -0.02939
C         30.35112        27.32239         0.63480
C         29.08616        26.65135         0.63703
C         30.37744        28.74863         0.83665
C         29.13643        29.47386         0.87027
C         30.36838        31.61761         0.85672
C         29.13538        30.90565         0.87554
C         30.36216        33.04359         0.82810
C         29.12271        33.75991         0.77027
C         30.37694        35.89619         0.69922
C         29.13811        35.18719         0.70758
C         30.38428        37.31798         0.60232
C         29.14589        38.04338         0.55910
C         30.38124        40.15923         0.37380
C         29.15276        39.46113         0.49587
C         30.39950        41.56803         0.14065
C         29.13028        42.23403        -0.19070
C         30.42276        44.47630        -0.09748
C         29.15565        43.77846        -0.35040
C         30.40435        45.88266         0.02566
C         29.14368        46.57388         0.02867
C         32.59329        24.79647        -0.95107
C         31.48641        25.42562        -0.48555
C         32.83790        27.20489         0.63332
C         31.54358        26.63127         0.29744
C         32.87079        28.74398         0.93820
C         31.59664        29.45805         0.84891
C         32.84901        31.56275         0.92131
C         31.61537        30.88647         0.84327
C         32.81996        33.01449         1.15746
C         31.58345        33.76893         0.89959
C         32.86880        35.89985         0.78914
C         31.61437        35.17536         0.81701
C         32.86465        37.31553         0.62149
C         31.62300        38.02827         0.55659
C         32.85543        40.15979         0.33488
C         31.62347        39.44242         0.41946
C         32.85062        41.58210         0.22428
C         31.61360        42.29317         0.10100
C         32.87211        44.43809         0.15975
C         31.63311        43.73567         0.00995
C         32.88050        45.88452         0.15763
C         31.65581        46.59694         0.10669
C         32.87555        48.70659         0.04397
C         31.68721        48.02063         0.07961
C         34.97271        23.75632        -2.31915
C         35.08056        24.85875        -1.51500
C         33.95659        25.28030        -0.64471
C         35.35776        27.34959         0.03751
C         34.10144        26.55086         0.14654
C         35.42385        28.66421         0.80954
C         34.12832        29.46654         0.76559
C         35.35463        31.61525         0.84852
C         34.10698        30.86554         0.84282
C         35.36817        33.01672         0.91981
C         34.12848        33.77771         1.15002
C         35.34174        35.90905         0.72091
C         34.11037        35.21987         0.86062
C         35.34274        37.32309         0.56045
C         34.09858        38.02732         0.52195
C         35.32785        40.16038         0.28424
C         34.09193        39.44760         0.38526
C         35.32077        41.57361         0.22141
C         34.08580        42.30033         0.24268
C         35.35858        44.43718         0.63717
C         34.08091        43.71945         0.28125
C         35.37331        45.90697         0.25849
C         34.12417        46.60475         0.16230
C         35.36792        48.74779         0.01033
C         34.12339        48.02316         0.06463
C         35.40375        50.16511        -0.07837
C         37.37137        23.65433        -2.69959
C         36.11357        23.17676        -2.94793
C         37.59920        24.96263        -2.05551
C         36.34302        25.62643        -1.46912
C         37.77984        27.47284        -0.53331
C         36.46729        26.81063        -0.56573
C         37.80787        28.86019        -0.03954
C         36.62071        29.49118         0.41136
C         37.82072        31.59767         0.70456
C         36.59833        30.88693         0.64673
C         37.81963        33.02258         1.08818
C         36.57437        33.77889         0.89442
C         37.83995        35.91954         0.74987
C         36.59270        35.18471         0.81541
C         37.83015        37.32134         0.51042
C         36.58156        38.03696         0.44210
C         37.80230        40.16576         0.08140
C         36.57226        39.44390         0.28654
C         37.78516        41.55268        -0.10170
C         36.56701        42.29148         0.07876
C         37.87514        44.38146         0.26468
C         36.58581        43.68209         0.19049
C         37.87238        45.90068         0.31867
C         36.57535        46.60891         0.19305
C         37.84350        48.74636        -0.01063
C         36.59959        48.03696         0.04310
C         37.84326        50.16530        -0.04753
C         36.59966        50.84804        -0.09464
C         40.57178        20.28045        -1.94075
C         39.48732        20.98588        -2.54215
C         40.46950        23.20941        -1.93839
C         39.39982        22.35358        -2.49672
C         40.26394        24.68006        -1.57858
C         38.95840        25.48343        -1.63798
C         40.23862        27.53349        -0.99014
C         38.92803        26.82517        -0.95995
C         40.25829        28.99590        -0.54555
C         39.00900        29.60621        -0.04958
C         40.28987        31.65455         0.61064
C         39.03408        30.93844         0.43914
C         40.34553        32.99847         0.88853
C         39.11902        33.78254         1.15532
C         40.30314        35.95061         0.79865
C         39.09967        35.24689         0.90082
C         40.31653        37.35475         0.49767
C         39.06205        38.04421         0.35071
C         40.28635        40.15881        -0.03883
C         39.05421        39.44137         0.09972
C         40.29847        41.55558        -0.29644
C         39.01211        42.27268        -0.60064
C         40.28771        44.43055        -0.35025
C         39.09577        43.71786        -0.17808
C         40.30580        45.88121        -0.31807
C         39.10933        46.59678        -0.07975
C         40.31175        48.69653        -0.33119
C         39.08950        48.00882        -0.12367
C         40.34184        50.14101        -0.01563
C         39.09174        50.90477         0.01214
C         40.36945        53.00832         0.04488
C         39.15680        52.28896         0.14481
C         42.75516        20.26736        -0.79881
C         41.63312        20.95669        -1.38236
C         42.74911        23.09362        -0.65317
C         41.68040        22.43561        -1.42635
C         42.65128        24.54039        -0.40677
C         41.38921        25.29956        -0.76268
C         42.69049        27.40448        -0.50151
C         41.48894        26.77340        -0.80474
C         42.72742        28.83123        -0.25453
C         41.53430        29.54856        -0.10186
C         42.85532        31.62071         0.51348
C         41.53567        30.86385         0.53270
C         42.86742        33.07467         0.63446
C         41.62291        33.71858         1.05140
C         42.85323        35.92845         0.71489
C         41.59230        35.24972         1.03038
C         42.83450        37.42521         0.83873
C         41.53700        38.06878         0.39063
C         42.74927        40.18371        -0.08925
C         41.52969        39.45588         0.10551
C         42.73501        41.54917        -0.34220
C         41.50522        42.27526        -0.42199
C         42.69473        44.43786        -0.93632
C         41.51300        43.71448        -0.61079
C         42.68529        45.84600        -1.01780
C         41.49897        46.58943        -0.69406
C         42.58282        48.85346        -1.35083
C         41.48939        48.01747        -0.68289
C         42.81703        50.22875        -0.75786
C         41.65347        50.91166        -0.16728
C         42.78467        53.08305        -0.52634
C         41.57915        52.37743        -0.22088
C         43.84463        20.93949        -0.33103
C         45.09388        23.11234         0.08264
C         43.87377        22.38903        -0.26958
C         45.13488        24.53657        -0.06480
C         43.92284        25.27385        -0.25548
C         45.19106        27.37247        -0.24251
C         43.93784        26.67329        -0.32385
C         45.22109        28.80678        -0.26648
C         43.99769        29.48839        -0.16626
C         45.29208        31.70878        -0.21096
C         43.98710        30.94952        -0.15660
C         45.29606        33.10851         0.22662
C         44.05569        33.78708         0.48019
C         45.31287        35.92919         0.45703
C         44.04593        35.23355         0.59648
C         45.27395        37.37606         0.29316
C         44.07735        38.04448         0.27006
C         45.25430        40.22548         0.17162
C         44.04392        39.43914        -0.28223
C         45.26281        41.68243        -0.17374
C         43.99146        42.23999        -0.73335
C         45.27613        44.41266        -1.25120
C         43.96069        43.67809        -1.14768
C         45.22655        45.88644        -1.49963
C         43.88411        46.58217        -1.52470
C         45.17298        48.86589        -1.75509
C         43.86789        48.08135        -1.65221
C         45.19740        50.30535        -1.42749
C         43.95313        50.97066        -1.02832
C         43.93240        52.40611        -0.83742
C         47.49696        23.11286         0.49350
C         46.28059        22.43966         0.41452
C         47.59173        24.49186         0.22562
C         46.38527        25.22595        -0.00523
C         47.65675        27.36511        -0.19449
C         46.41184        26.65694        -0.14541
C         47.71445        28.77220        -0.23625
C         46.48371        29.52039        -0.25113
C         47.75900        31.64719        -0.06129
C         46.53061        30.92856        -0.19265
C         47.75345        33.06094         0.09206
C         46.51901        33.78774         0.25081
C         47.77668        35.95389        -0.00223
C         46.50222        35.22654         0.33864
C         47.75029        37.39800         0.41638
C         46.54786        38.10984         0.24148
C         47.74411        40.34214         0.55837
C         46.52564        39.51272         0.26920
C         47.72968        41.69489        -0.12890
C         46.56172        42.37043        -0.38480
C         47.70918        44.50353        -0.73374
C         46.54559        43.77635        -0.76995
C         47.71962        45.97806        -0.89323
C         46.45517        46.70480        -1.20171
C         47.74953        48.89666        -1.37747
C         46.51433        48.13077        -1.66902
C         47.66896        50.26306        -1.34855
C         46.41365        50.94779        -1.33801
C         50.09156        24.51526         0.33140
C         48.87673        25.15977         0.12936
C         50.24535        27.32452        -0.21159
C         48.89595        26.57231        -0.27226
C         50.21561        28.78911        -0.08065
C         48.97754        29.49104        -0.17769
C         50.23495        31.62962        -0.06586
C         48.99203        30.91088        -0.09244
C         50.23020        33.03934         0.02573
C         49.00420        33.77974         0.18632
C         50.27338        35.87717         0.59763
C         49.01366        35.17080         0.34685
C         50.30688        37.37592         0.63815
C         49.00437        38.14017         0.59942
C         50.16891        40.18019        -0.17044
C         49.01168        39.58440         0.27790
C         50.30498        41.63580        -0.31775
C         49.03185        42.39603        -0.12960
C         50.26093        44.57673        -0.62115
C         48.99432        43.87380        -0.37163
C         50.28189        45.95630        -0.75143
C         49.03082        46.65950        -1.15006
C         50.31186        48.82646        -0.97944
C         49.04541        48.15680        -1.32432
C         51.32617        25.20161         0.38670
C         52.64718        27.32215         0.50272
C         51.43063        26.58173         0.24372
C         52.65711        28.74065         0.37494
C         51.43795        29.46962         0.10849
C         52.72081        31.57003         0.07776
C         51.47833        30.89935         0.00414
C         52.81201        32.99256        -0.21549
C         51.46503        33.78017        -0.21793
C         52.79815        35.96861        -0.07149
C         51.56859        35.18897         0.23589
C         52.78641        37.35879        -0.11701
C         51.48395        38.03825         0.02192
C         53.06015        40.37347        -0.51349
C         51.26628        39.28765        -0.50269
C         52.81230        41.70886        -0.20729
C         51.50058        42.32865        -0.40467
C         52.67358        44.57105        -0.00913
C         51.55821        43.81687        -0.70342
C         52.64834        45.98770        -0.02265
C         51.48978        46.69608        -0.54529
C         51.44126        48.12549        -0.65117
C         55.02410        27.34665         1.07467
C         53.85189        26.65477         0.86323
C         55.06423        28.76138         0.94303
C         53.87195        29.46068         0.59710
C         55.12739        31.60331         0.67926
C         53.91470        30.88531         0.45829
C         55.15534        33.05681         0.55928
C         54.03184        33.73536         0.10496
C         55.33395        35.98322         0.24238
C         54.04925        35.19685        -0.13878
C         55.20660        37.44259         0.45476
C         54.03643        38.12802         0.03427
C         55.12791        40.29284         0.72312
C         54.08008        39.57445         0.07334
C         55.04914        41.74123         0.82813
C         53.88437        42.43642         0.40218
C         54.90168        44.59607         1.03355
C         53.79965        43.87200         0.49484
C         54.84570        46.01640         1.05422
C         53.76101        46.68810         0.53522
C         56.26605        29.49226         1.14353
C         56.29377        30.86667         1.01561
C         56.31418        33.82629         0.97576
C         56.38114        35.17955         0.88978
C         56.27057        38.17087         1.04233
C         56.22123        39.54150         1.22121
C         56.11504        42.50803         1.39154
C         56.04216        43.87900         1.49735
O         41.67435        34.50072         2.29455
O         49.15342        47.23035        -2.48986
O         49.68588        26.84141        -1.47683
O         44.42537        31.54632        -1.41375
O         38.45174        33.33856         2.38684
O         51.13596        35.28923         1.64147
O         38.39942        22.92411        -3.27293
O         45.04736        41.24128         1.22001
O         43.65248        47.23328        -2.82627
O         29.17193        42.88114        -1.50294
O         49.05937        43.33136         1.01985
O         42.39853        30.93897         1.72409
O         41.56590        24.79374         0.60420
O         41.66529        23.03564        -2.79085
O         52.19949        39.76138        -1.43257
O         34.30983        25.23731         0.79248
O         32.93031        27.71188         1.99759
O         36.85246        25.99157        -2.79857
O         45.91797        48.46501        -2.94414
O         45.43347        44.97243        -2.61005
O         55.02135        35.61119        -1.13648
O         43.95038        42.59593        -2.14920
O         52.14807        33.45005        -1.44396
O         41.22956        50.37427         1.14104
O         33.47471        33.41993         2.41996
O         46.91517        46.62056         0.18784
O         40.25941        28.62059        -1.96946
O         38.02067        45.12682         1.56100
O         39.94006        25.49562        -2.73314
O         49.75939        37.89699         1.87948
O         35.41244        44.42286         2.11259
H         36.31931        44.74074         2.35215
O         42.90744        37.69320         2.28944
H         42.31891        37.05060         2.74219
O         38.87416        42.27402        -2.08009
H         39.71018        42.63400        -2.44797
O         47.80286        36.03521        -1.48986
H         46.92829        36.37034        -1.78488
O         41.99366        49.18187        -2.65379
H         42.26650        48.45897        -3.26896
O         35.63462        28.30929         2.21186
H         34.79302        27.89621         2.52653
O         27.82277        40.42657         2.21863
H         27.81818        39.53781         2.63395
O         47.70918        40.64473         1.98819
H         46.81570        41.01980         2.17594
O         44.23481        39.30936        -1.73396
H         43.39107        39.00515        -2.12960
O         51.91478        43.84346        -2.14212
H         51.99334        44.78464        -2.41046
H         26.95286        26.80499         0.82042
H         25.73567        28.93497         0.93139
H         25.71277        31.38912         0.93012
H         25.70866        33.27594         0.76676
H         25.71755        35.68905         0.62348
H         25.74999        37.52929         0.14766
H         25.69572        39.94174         0.24258
H         25.73009        41.89830         0.33601
H         25.74829        44.31662        -0.02677
H         27.00061        46.47589         0.03955
H         29.05997        25.55588         0.56161
H         29.12901        47.66632         0.13178
H         32.47017        23.90896        -1.58496
H         30.49887        25.02640        -0.75519
H         32.84665        49.80252        -0.00289
H         30.75157        48.59301         0.05420
H         34.02120        23.21758        -2.40946
H         34.47134        50.74189        -0.12486
H         35.99844        22.25017        -3.52358
H         36.58074        51.94412        -0.15421
H         40.56433        19.18166        -1.94743
H         38.69740        20.42324        -3.05607
H         40.33692        54.10653         0.09258
H         38.23294        52.87129         0.26439
H         42.74035        19.16766        -0.79493
H         42.78205        54.18226        -0.49322
H         44.70253        20.36775         0.04597
H         44.83845        52.98609        -1.05447
H         48.40080        22.53296         0.72252
H         46.27372        21.35487         0.58415
H         48.57594        50.86942        -1.21724
H         46.45034        52.02578        -1.13420
H         50.10906        23.43810         0.54711
H         50.34822        49.92495        -0.97524
H         52.21510        24.60888         0.64200
H         52.35079        48.70011        -0.42618
H         55.94390        26.80699         1.34207
H         53.85730        25.56157         0.96662
H         55.69127        46.57926         1.47512
H         53.75586        47.78608         0.56077
H         57.18481        28.94644         1.40199
H         57.24668        31.39028         1.16881
H         57.14604        33.29884         1.46215
H         57.23939        35.69349         1.34593
H         57.16330        37.63250         1.38837
H         57.06038        40.04074         1.72317
H         57.02323        41.99893         1.74177
H         56.88420        44.44129         1.92615
