         621
 CSIRO Nanostructure Databank - Neutral Graphene Oxide Data Set
C          6.05810        32.01359        -1.22007
C          6.00470        33.31736        -1.60289
C          8.54837        28.00276         0.36367
C          8.46050        29.50648         0.39005
C          7.28854        30.08292        -0.36439
C          8.42230        32.31726        -0.30944
C          7.24833        31.41058        -0.64752
C          8.45843        33.55334        -1.20843
C          7.18493        34.15439        -1.61776
C          8.35391        36.26875        -2.03047
C          7.13513        35.48401        -1.97631
C          8.39278        37.61580        -1.85460
C         10.97814        23.79873         0.85363
C         10.97016        25.19981         0.88540
C          9.81307        25.92203         0.58132
C         10.96895        28.12714         0.92649
C          9.72888        27.34713         0.63133
C         11.01823        29.54961         0.44680
C          9.76865        30.07106        -0.25539
C         10.98806        32.27109        -0.33634
C          9.73301        31.56543        -0.29908
C         10.92661        33.66420        -1.03002
C          9.62768        34.18718        -1.49978
C         10.87717        36.26988        -2.20673
C          9.59952        35.47004        -2.33623
C         10.91388        37.63385        -2.08042
C          9.68381        38.33608        -1.55729
C         10.90476        40.48515        -1.90594
C          9.69550        39.80471        -1.82139
C         10.94356        41.87514        -1.60438
C         13.20929        19.30721         0.95468
C         13.21624        20.74574         1.24460
C         12.06065        21.64070         1.13874
C         13.43046        23.75951         1.19622
C         12.15302        23.03156         1.12210
C         13.47291        25.12927         1.13884
C         12.19183        25.89059         1.45288
C         13.54259        28.07171         0.70676
C         12.26795        27.39484         1.15783
C         13.50489        29.46480         0.19565
C         12.32627        30.18514         0.11378
C         13.46297        32.22777        -0.71206
C         12.29377        31.56300        -0.32766
C         13.44834        33.51158        -1.34926
C         12.16024        34.10519        -1.72005
C         13.39116        36.24866        -2.37667
C         12.12611        35.52001        -2.33404
C         13.35542        37.65588        -2.53159
C         12.14903        38.37387        -2.29540
C         13.36728        40.56160        -2.26507
C         12.15925        39.79340        -2.17002
C         13.37390        41.93064        -1.94009
C         12.16107        42.55181        -1.46988
C         13.32787        44.44907        -0.28129
C         12.18991        43.73203        -0.67000
C         13.16085        45.31371         0.82862
C         15.63966        15.00699         1.46829
C         15.62546        16.39251         1.16433
C         14.41931        17.13200         1.13980
C         15.68133        19.20089         0.83014
C         14.41226        18.54851         1.00445
C         15.66303        20.65027         0.56956
C         14.56479        21.45571         1.16573
C         15.73939        23.58708         0.28246
C         14.73394        22.98048         1.28241
C         15.99567        25.04987         0.62756
C         14.76393        25.88199         0.99200
C         16.02979        27.96933         0.23781
C         14.77495        27.28546         0.56406
C         16.02831        29.35075        -0.28055
C         14.80515        30.13863        -0.02295
C         15.95355        32.06879        -1.23858
C         14.77522        31.58195        -0.49470
C         15.89715        33.44749        -1.70937
C         14.63162        34.16748        -1.73533
C         15.82444        36.24093        -2.40236
C         14.60227        35.52522        -2.20786
C         15.82579        37.55149        -2.87104
C         14.59063        38.36578        -2.92598
C         15.88381        40.69486        -2.55981
C         14.60758        39.93717        -2.79173
C         15.86589        41.99162        -2.03443
C         14.59908        42.76869        -2.13324
C         15.94953        44.48508        -0.45609
C         14.58942        44.42242        -1.18279
C         16.05998        45.60632         0.37415
C         14.11701        46.27618         1.23848
C         15.61252        47.57161         2.69321
C         14.32308        46.92398         2.44057
C         15.64393        48.70754         3.45703
C         18.10521        10.78139         2.64124
C         18.02078        12.20699         2.37321
C         16.82286        12.92907         1.99911
C         18.10142        14.94736         1.27479
C         16.84758        14.28349         1.60876
C         18.10133        16.32170         0.88550
C         16.87641        17.05511         0.90150
C         18.14697        19.11418         0.45673
C         16.88432        18.46399         0.68769
C         18.17855        20.58141         0.46443
C         16.93910        21.35362         0.22137
C         18.20383        23.44203        -0.16172
C         17.03203        22.81966         0.22681
C         18.20494        24.86982        -0.44595
C         17.16237        25.66766        -0.03513
C         18.39606        27.74516        -0.86577
C         17.29860        27.13545        -0.06259
C         18.35836        29.15621        -1.16337
C         17.16019        29.92792        -0.87419
C         18.19786        31.78336        -2.28422
C         17.09646        31.30502        -1.35263
C         18.26650        33.30207        -2.43853
C         17.06010        34.07499        -2.09129
C         18.40634        36.25887        -2.37141
C         17.09996        35.54193        -2.16121
C         18.31249        37.60580        -2.95238
C         17.08285        38.08858        -3.29959
C         18.41558        40.59094        -2.59268
C         17.12699        40.21608        -3.06398
C         18.44999        41.89885        -1.89842
C         17.15379        42.64927        -1.67883
C         18.27026        44.01073         0.14917
C         17.10735        43.69855        -0.61034
C         18.24901        45.02098         1.15162
C         17.07686        45.80272         1.31418
C         18.18420        47.36633         2.97804
C         16.90002        46.82588         2.39078
C         18.18982        48.75525         3.54348
C         16.87856        49.43276         3.81429
C         17.99160        51.67539         3.86364
C         16.84816        50.90012         3.95636
C         17.98466        53.06659         4.13621
C         20.66482         6.85122         4.17536
C         20.62699         8.16949         3.66033
C         19.39419         8.83093         3.44615
C         20.58808        10.77541         2.56694
C         19.34057        10.14587         2.92564
C         20.52029        11.98496         1.73335
C         19.36611        12.90221         1.91842
C         20.51359        14.82200         0.79924
C         19.31238        14.22243         1.25490
C         20.52668        16.19263         0.45667
C         19.33628        16.96419         0.53923
C         20.59742        19.11304         0.11724
C         19.35336        18.40213         0.34996
C         20.67482        20.50409         0.07734
C         19.47744        21.32300         0.29795
C         20.65795        23.32119        -0.50771
C         19.45227        22.71152        -0.20100
C         20.69180        24.68127        -1.09865
C         19.38248        25.47242        -1.09194
C         20.66928        27.43722        -1.98729
C         19.44857        26.93332        -1.24733
C         20.72013        28.96779        -2.07432
C         19.51391        29.77298        -1.74655
C         20.78933        31.85181        -2.26878
C         19.54920        31.14853        -2.02284
C         20.83578        33.24709        -2.55157
C         19.57206        34.01152        -2.65511
C         20.79112        36.12779        -3.02227
C         19.65615        35.49753        -2.61415
C         20.81093        37.60101        -3.30663
C         19.54389        38.39540        -3.24096
C         20.83645        40.30814        -2.18433
C         19.58294        39.81938        -2.74676
C         20.80764        41.48239        -1.29018
C         19.62984        42.17387        -1.05970
C         20.81827        43.70332         0.59326
C         19.50757        43.18750         0.00301
C         20.80892        45.03315         1.23000
C         19.51478        45.47124         1.80081
C         20.72597        47.64322         2.51259
C         19.51437        46.77614         2.56816
C         20.66269        48.97164         2.88496
C         19.34705        49.61035         3.12695
C         20.48979        51.89210         3.31145
C         19.24661        51.08346         3.31764
C         20.38616        53.28344         3.53111
C         19.13124        53.87450         3.95852
C         20.19117        56.10403         4.01780
C         19.07229        55.25902         4.21282
C         20.11932        57.49460         4.29410
C         23.15174         4.20138         5.05764
C         21.93465         4.84804         4.87236
C         23.12177         6.84994         4.07144
C         21.88925         6.18015         4.37436
C         23.11142         8.18220         3.56692
C         21.86260         8.83587         3.34542
C         23.07338        10.82144         2.44956
C         21.82584        10.13501         2.75851
C         23.04032        12.05033         1.79104
C         21.80293        12.58933         1.19382
C         23.04419        14.64771         0.30863
C         21.74760        13.99532         0.64237
C         23.10036        16.16698         0.46915
C         21.80114        16.84039         0.02890
C         23.11484        19.07973         0.01695
C         21.84198        18.34771        -0.09791
C         23.15402        20.48629        -0.02158
C         21.90678        21.23206        -0.07052
C         23.11002        23.42548        -0.14677
C         21.88547        22.61980        -0.26813
C         23.18886        24.80308        -0.66769
C         21.96071        25.47036        -1.10783
C         23.19561        27.61817        -1.13912
C         21.94501        26.80408        -1.42799
C         23.29785        28.98389        -1.81099
C         22.04031        29.70064        -2.12162
C         23.25557        31.85283        -2.35659
C         22.03791        31.18042        -2.14747
C         23.28486        33.21734        -2.72156
C         22.05127        33.90845        -2.81281
C         23.35868        36.07983        -3.31839
C         22.03343        35.33627        -3.24229
C         23.39023        37.57267        -3.15930
C         22.10241        38.34510        -3.12262
C         23.29354        40.01867        -1.65747
C         22.03419        39.63825        -2.40208
C         23.29660        41.44556        -1.19336
C         22.06271        41.99403        -0.75197
C         23.28155        43.82396         0.33875
C         22.07408        43.17493         0.03680
C         23.29585        45.00063         1.31230
C         21.97375        45.72850         1.47981
C         23.11238        47.91498         1.95854
C         21.96694        47.06739         2.04010
C         23.09254        49.26995         2.32736
C         21.90938        49.79955         3.09592
C         22.86382        52.12059         2.76166
C         21.72379        51.30164         2.99801
C         22.77080        53.53942         2.92881
C         21.53746        54.10456         3.36803
C         22.55277        56.34479         3.32057
C         21.43320        55.51155         3.58677
C         22.31095        57.73324         3.33235
C         21.20721        58.34084         3.98959
C         22.49340        60.41078         4.60578
C         21.29876        59.72275         4.37082
C         24.35742         4.84725         4.76390
C         25.57624         6.86100         3.98001
C         24.36012         6.17300         4.27328
C         25.57933         8.16664         3.52085
C         24.34660         8.85663         3.29842
C         25.57942        10.86299         2.56198
C         24.34526        10.20701         2.80745
C         25.58030        12.28343         2.18859
C         24.24167        12.89333         1.78146
C         25.45897        14.26152         0.15567
C         24.28619        13.94063         0.74593
C         25.46889        16.30506        -0.54155
C         24.33946        16.88544        -0.04837
C         25.57355        18.99020        -0.46221
C         24.40641        18.35382         0.27057
C         25.60545        20.48127        -0.52684
C         24.38434        21.18667        -0.10392
C         25.67274        23.33298        -0.35993
C         24.42612        22.63726        -0.02935
C         25.66925        24.72669        -0.55569
C         24.42232        25.42813        -0.77746
C         25.67951        27.62091        -1.03767
C         24.46288        26.80102        -1.42837
C         25.76803        29.00045        -1.56685
C         24.49573        29.65375        -1.86860
C         25.83408        31.78367        -2.35898
C         24.52152        31.12355        -2.09552
C         25.88449        33.13088        -3.02461
C         24.56767        33.88733        -3.11419
C         25.87891        36.08492        -3.29023
C         24.61363        35.35184        -3.09919
C         25.91344        37.52839        -2.94265
C         24.65139        38.20703        -2.67465
C         25.76183        40.41712        -2.58654
C         24.59729        39.50824        -2.24086
C         25.70622        41.86094        -1.91383
C         24.49683        42.14059        -1.00586
C         25.70572        44.10311        -0.09188
C         24.48383        43.33931        -0.22973
C         25.74115        45.31416         0.74260
C         24.41573        45.95697         0.96688
C         25.58494        48.18894         1.46500
C         24.34410        47.39643         1.32569
C         25.49718        49.55328         1.68269
C         24.21019        50.13607         2.07694
C         25.19148        52.42547         1.91951
C         24.08898        51.52117         2.29646
C         25.16370        53.82277         2.36919
C         23.93390        54.39280         2.77679
C         25.07490        56.56590         3.11923
C         23.85310        55.79700         3.02044
C         25.15925        57.89177         3.69952
C         24.11884        58.81371         3.64475
C         23.81181        59.93480         4.45513
C         26.92011         8.82814         3.28558
C         28.03788        10.82000         2.28869
C         26.84750        10.21022         2.67665
C         28.10875        12.13868         1.73539
C         26.85955        12.92677         1.71325
C         28.01403        14.54242        -0.10299
C         26.79967        14.05804         0.70599
C         28.04246        16.07763        -0.35105
C         26.82132        16.87344        -0.50408
C         28.07441        18.99205        -0.77145
C         26.85143        18.25358        -0.47549
C         28.13079        20.45185        -0.50436
C         26.90791        21.17818        -0.42521
C         28.11094        23.31102        -0.04164
C         26.88102        22.57795        -0.31262
C         28.11461        24.74228        -0.34448
C         26.93985        25.41392        -0.62406
C         28.21207        27.59364        -1.02148
C         26.95337        26.89943        -0.71980
C         28.25381        28.90696        -1.47987
C         27.00101        29.60937        -1.73735
C         28.37327        31.68548        -2.49122
C         27.07304        30.94505        -2.38693
C         28.36278        33.16804        -2.70226
C         27.20079        33.84434        -2.98660
C         28.44342        36.07226        -2.99592
C         27.21844        35.30069        -3.30321
C         28.37486        37.44112        -2.77841
C         27.12037        38.18230        -2.74569
C         28.37667        40.29665        -1.96908
C         27.12239        39.67368        -2.53888
C         28.31421        41.65857        -1.28029
C         26.98165        42.32822        -1.21215
C         27.88328        44.73512        -0.91071
C         26.85147        43.75315        -0.76852
C         28.12334        45.79870        -0.06342
C         26.99819        46.12543         0.85287
C         28.12858        48.39308         1.19515
C         26.89878        47.53695         1.34493
C         27.93757        49.84929         1.25703
C         26.68912        50.37361         1.54783
C         27.75243        52.67489         1.65209
C         26.53682        51.83887         1.52919
C         27.61841        54.01540         1.99042
C         26.35521        54.59736         2.34845
C         26.29144        55.93063         2.80987
C         29.25534        12.72479         1.22089
C         30.44087        14.74185         0.51936
C         29.27501        14.02217         0.58014
C         30.51360        16.09146        -0.00066
C         29.26547        16.73889        -0.41353
C         30.64101        18.92122        -0.78553
C         29.34084        18.16457        -0.82401
C         30.62954        20.38321        -0.55999
C         29.38676        21.07960        -0.38251
C         30.69865        23.22576        -0.21768
C         29.44628        22.50239        -0.02214
C         30.69936        24.69411        -0.16244
C         29.39791        25.46369        -0.27339
C         30.75991        27.46774        -1.17607
C         29.43227        26.78600        -0.97523
C         30.74516        28.93143        -1.36561
C         29.54316        29.58346        -1.61906
C         30.92398        31.74209        -1.99167
C         29.57964        31.04803        -1.86810
C         30.98205        33.09121        -2.66423
C         29.68475        33.82200        -2.93696
C         31.02760        36.04391        -2.76854
C         29.74178        35.34157        -3.07879
C         30.88435        37.48177        -2.59222
C         29.61368        38.12248        -2.44326
C         30.72793        39.82212        -1.18752
C         29.54411        39.37858        -1.79097
C         30.73314        41.91852        -0.57913
C         29.57831        42.48560        -1.10228
C         30.83690        44.63488        -0.90472
C         29.76400        43.85737        -1.39933
C         30.65391        46.14727        -0.79759
C         29.34256        46.60399        -0.08932
C         30.50465        48.71509         0.51259
C         29.33169        47.85111         0.50445
C         30.37101        50.07438         0.83640
C         29.11545        50.69034         1.12030
C         29.00944        52.06249         1.38955
C         31.72170        16.75579         0.01755
C         33.07460        18.94334        -0.03527
C         31.90716        18.15361        -0.41438
C         33.10314        20.33185        -0.24233
C         31.85709        21.06305        -0.43501
C         33.14990        23.20857        -0.34352
C         31.88800        22.50863        -0.37700
C         33.19093        24.63118        -0.34200
C         31.96364        25.39729        -0.45717
C         33.19110        27.51193        -0.64288
C         31.97754        26.75705        -0.71975
C         33.19893        28.86079        -0.94541
C         32.02887        29.61582        -1.36625
C         33.48439        31.59794        -1.85758
C         32.15242        30.93621        -1.79348
C         33.53211        33.14119        -2.05057
C         32.28389        33.88548        -2.52773
C         33.36521        36.05524        -1.74668
C         32.21696        35.37762        -2.47161
C         33.79506        37.43151        -2.01652
C         32.00973        38.33738        -2.54603
C         33.05737        40.46194        -1.72608
C         31.97986        39.51932        -1.77140
C         33.05818        41.77100        -1.26632
C         32.00197        42.54586        -0.71045
C         33.27830        44.69527        -0.27499
C         32.06478        43.97725        -0.67048
C         33.08923        46.07654         0.01179
C         31.87287        46.77059        -0.13097
C         31.77001        48.10450         0.29461
C         34.32154        21.05991        -0.13824
C         35.60688        23.18440        -0.20220
C         34.37452        22.47255        -0.23995
C         35.65132        24.59169        -0.23586
C         34.41610        25.30955        -0.27703
C         35.69259        27.38881        -0.61948
C         34.41536        26.80385        -0.07424
C         35.59662        28.62946        -1.15216
C         34.50303        29.56789        -0.69246
C         35.81456        31.68765        -0.99164
C         34.63986        30.97007        -1.21141
C         35.76139        33.13218        -0.94393
C         34.62325        33.81610        -1.33331
C         35.65727        35.97565        -0.49639
C         34.48280        35.25437        -1.04274
C         35.61339        37.38723        -0.36709
C         34.74380        38.14119        -1.22324
C         35.68512        40.30309        -0.31553
C         34.92921        39.55910        -1.30384
C         35.63603        41.72263         0.04574
C         34.84921        42.75473        -0.46359
C         34.50575        44.04718         0.04490
C         36.90336        25.31467        -0.19343
C         38.14900        27.45940        -0.11816
C         36.96465        26.69546        -0.40732
C         38.24419        28.87133        -0.08517
C         37.34509        29.71975        -0.82333
C         37.95844        31.70583         0.37375
C         37.03637        31.02841        -0.49561
C         37.87382        33.08851         0.51096
C         37.00202        33.86387        -0.45133
C         37.71028        35.93986         0.83296
C         36.74759        35.27139         0.01276
C         37.59681        37.32562         1.05275
C         36.59931        38.08407         0.39490
C         36.53365        39.50388         0.48456
C         39.13982        29.56701         0.79009
C         39.91035        31.65940         1.87905
C         39.01377        30.94047         1.00779
C         39.80381        33.00993         2.04744
C         38.80683        33.78614         1.34623
C         38.74475        35.17446         1.46947
O         14.11699        20.95153         2.43668
O         30.11182        31.83498        -0.75255
O         22.92387        38.31331        -4.33751
O         33.23832        37.98370        -3.16508
O         17.40812        46.38423         3.69931
O         22.66218        35.59505        -4.53024
O         13.08549        28.04705         2.16421
O         33.94234        32.22624        -3.10080
O         15.04002        31.26157         0.90816
O         15.79201        25.50008         1.98054
O         10.81415        29.24746         1.86118
O         25.59820        52.29618         0.49922
O         14.48582        45.33212        -2.11804
O         28.09418        40.35529        -3.40122
O         34.28164        40.14874        -2.39519
O         19.67774        45.49746         3.26277
O         20.98392        11.69833         0.37412
O         20.13749        38.04310        -4.53622
O         29.74918        34.46570        -4.24495
O         26.64012        45.15885         1.89664
O         36.65124        29.15294        -1.90677
O         27.80286        47.75608         2.48619
O         24.82185        13.14823         3.09700
O         30.69063        40.63108        -0.05187
O         28.74592        22.88913         1.20403
O         15.08598        46.59023         0.27059
O         30.05502        25.35475         1.01887
O         19.86012        24.74704        -2.28364
O         21.33524        29.29638        -3.37157
O         20.01256        42.70055         1.29962
O         25.33646        19.65070        -1.74228
O         33.28071        35.68336        -0.31937
O         26.56534        35.70515        -4.53722
O         17.86862        36.12057        -1.00402
O         17.11772        27.75810         1.22856
O         18.04761        43.01854        -2.78414
O         17.05764        39.26478        -4.06924
O         11.03390        33.56920         0.40912
O         14.44309        39.26540        -4.06428
O         25.40237        14.99280        -1.03973
O         18.87791        21.14145         1.63414
O         23.16880        58.55514         2.61834
O         18.98718        50.47982         1.97686
O         34.17827        42.47719        -1.67705
O         23.76500        23.22944         1.14689
O         31.53163        18.44497        -1.82844
O         25.20171        33.21057        -4.29890
O         27.48173        41.53794        -0.07241
O         28.63515        18.52354        -2.05313
O         18.72499        33.62772        -3.81598
O         28.73561        44.55729        -2.02097
O         27.82732        30.94724        -3.63714
O         17.73689        48.83702         4.91307
O         18.93695        12.96946         3.26913
O         30.10936        26.72593        -2.27972
O         26.94207        14.32200         2.13335
O         25.45459        42.81529        -2.91613
O         22.26864        14.06980        -0.75521
O         12.02845        34.31007        -3.16440
O         26.10732        27.50747         0.35027
O         25.28508        31.82061        -1.00574
O         21.79036        17.42108        -1.29373
O         24.09965        46.91321        -0.08220
O         31.86753        33.25680        -3.78397
O         16.01385        20.92130        -0.85436
O         15.14883        23.56643        -1.04268
H         15.29752        22.66226        -1.41415
O         27.95944        13.90942        -1.40188
H         27.18596        14.28340        -1.88185
O         15.31155        23.16927         2.58605
H         14.75189        22.68481         3.23253
O         23.61573        44.46518         2.62458
H         22.88343        43.87689         2.90552
O         20.54509        26.93563        -3.34441
H         20.91478        27.62890        -3.94170
O         14.63144        43.29919        -3.45784
H         14.53955        44.29864        -3.39964
O          9.83764        29.54660        -1.61865
H          9.00893        29.80124        -2.07938
O         22.25294        49.59284         4.52953
H         22.43069        48.63571         4.65719
O         27.76560         7.97260         2.50076
H         27.33422         7.82510         1.63437
O          9.48762        35.08202        -3.73192
H         10.33463        34.63771        -3.97561
O         23.13195        27.90380         0.28454
H         24.04396        28.03285         0.62893
O          9.81588        38.24454        -0.07737
H          9.73739        37.29728         0.16798
O          8.31486        29.97168         1.74518
H          9.12246        29.69887         2.24531
O         17.78100        31.25800        -3.58315
H         18.24470        31.79909        -4.26490
O         24.57073        26.60032        -2.85651
H         23.76031        26.14314        -3.16774
O         23.12999        16.31866         1.92119
H         23.72344        17.07597         2.15831
O         23.16763        39.21505        -0.40684
H         22.53563        39.68003         0.18427
O          8.20527        32.84891         1.03540
H          9.06061        33.23199         1.33409
O         37.83268        34.02727        -1.66196
H         38.03498        33.12941        -2.00273
O         34.36073        27.03305         1.38128
H         35.09244        26.51986         1.78642
O         34.66930        29.70096         0.75731
H         34.48465        28.82173         1.18068
O         24.71907        18.50701         1.71328
H         24.48249        19.42177         1.98143
O         25.51566        40.62340        -3.98758
H         25.37536        41.61364        -4.08404
O         30.59902        46.68888        -2.14286
H         29.85601        46.23790        -2.60428
O         12.03165        25.79078         2.89433
H         12.63906        26.45692         3.29198
H          5.15981        31.38276        -1.29927
H          5.06258        33.74510        -1.97570
H          7.64669        27.41120         0.14035
H          6.41919        29.44435        -0.59017
H          6.16411        35.97494        -2.14165
H          7.45592        38.16643        -1.67181
H         10.05033        23.26546         0.59559
H          8.90779        25.36593         0.29290
H          8.77080        40.37436        -1.64212
H         10.01405        42.37172        -1.28869
H         12.24519        18.78490         0.86956
H         11.07761        21.18428         0.94638
H         11.23165        44.00959        -0.19894
H         12.25506        45.18483         1.44373
H         14.68839        14.49960         1.68746
H         13.46692        16.60350         1.29437
H         13.55291        46.94872         3.22540
H         14.68876        49.18506         3.72575
H         17.17701        10.19353         2.67951
H         15.86353        12.39127         2.00219
H         15.89085        51.37620         4.21938
H         17.05525        53.53324         4.49569
H         19.72108         6.33919         4.41525
H         18.45725         8.30919         3.69040
H         18.12379        55.69942         4.55488
H         19.20496        57.90986         4.74135
H         23.16815         3.17144         5.44075
H         20.99270         4.33226         5.10768
H         22.38875        61.38088         5.11818
H         20.37167        60.20623         4.71532
H         25.31339         4.32655         4.91692
H         26.53428         6.34102         4.12684
H         26.08367        58.14750         4.23958
H         24.61147        60.41101         5.04067
H         27.43160         8.92855         4.28399
H         28.96745        10.23679         2.37017
H         28.51528        54.65049         2.04289
H         27.22580        56.50527         2.89527
H         30.21736        12.20146         1.33933
H         31.35532        14.32178         0.96690
H         31.26958        50.70962         0.82436
H         29.91689        52.68451         1.39957
H         32.60333        16.22975         0.41590
H         33.97434        18.42897         0.33365
H         33.94077        46.63244         0.43653
H         32.68122        48.65506         0.57644
H         35.25858        20.50067         0.00075
H         36.54771        22.61671        -0.14753
H         36.20586        41.95532         0.95957
H         35.21997        44.58806         0.68525
H         37.82774        24.74880        -0.00412
H         38.97192        26.90033         0.35857
H         38.33663        37.83627         1.68642
H         37.21257        40.00618         1.19013
H         39.90076        28.99888         1.34624
H         40.69962        31.09754         2.39970
H         40.50563        33.54046         2.70753
H         39.47094        35.69708         2.10941
