         720
 CSIRO Nanostructure Databank - Neutral Graphene Oxide Data Set
C         23.32171        27.16045         1.51744
C         23.39353        28.49000         1.80272
C         23.24327        31.44771         1.51051
C         23.18191        32.77353         1.23105
C         23.18952        35.78733         1.53107
C         23.20293        37.12607         1.63588
C         23.09863        40.20333         1.00484
C         23.08098        41.54257         1.15599
C         23.23030        44.61712         1.47637
C         23.32551        45.84249         2.07487
C         25.68054        24.36814         0.90115
C         24.49012        25.02025         0.92670
C         25.73527        27.19423         0.89777
C         24.41094        26.49909         0.71766
C         25.72548        28.61816         1.05542
C         24.54420        29.27310         1.45392
C         25.68817        31.47022         1.01046
C         24.56803        30.75746         1.73564
C         25.59120        32.90065         0.86112
C         24.37356        33.55825         1.02292
C         25.60207        35.73594         1.17521
C         24.28095        35.05435         0.76138
C         25.59223        37.23063         0.94407
C         24.24904        37.93284         0.90161
C         25.52721        40.08161         1.21079
C         24.33260        39.42790         1.15425
C         25.55741        41.57243         0.92243
C         24.34557        42.28322         1.54061
C         25.58255        44.31397         0.84103
C         24.36924        43.76513         1.17828
C         25.76986        46.21928         1.78598
C         24.58390        46.42877         2.52080
C         25.95510        47.36704         4.28771
C         24.69765        47.05951         3.77801
C         28.15559        22.92008         0.08539
C         28.18285        24.26998         0.67189
C         26.93425        25.06385         0.78638
C         28.22123        27.24012         0.92273
C         26.94588        26.47601         0.83581
C         28.18552        28.70182         0.64842
C         26.93064        29.36970         0.78546
C         27.93854        31.48008        -0.13641
C         26.83683        30.78372         0.62860
C         27.98113        32.96328         0.14394
C         26.81259        33.63707         0.54409
C         28.02748        35.74861         0.47066
C         26.83572        35.04274         0.66138
C         28.01969        37.22118         0.55599
C         26.75699        37.91719         0.88329
C         28.04562        40.13799         0.89073
C         26.82368        39.33730         1.41587
C         28.12911        41.53592         1.54500
C         26.86327        42.29330         1.22304
C         28.13415        44.41751         1.01068
C         26.86475        43.64154         1.02161
C         28.24321        45.86550         1.57690
C         27.06990        46.43304         2.30233
C         29.20182        48.14083         3.51850
C         27.12644        47.03036         3.58109
C         29.41469        49.42656         4.02977
C         30.60220        22.92644        -0.20586
C         29.31186        22.26589        -0.18865
C         30.66819        24.33220        -0.04337
C         29.52259        25.00068         0.61389
C         30.77313        27.23219         0.38253
C         29.52939        26.49368         0.79309
C         30.67716        28.74005         0.28142
C         29.36419        29.41992         0.39282
C         30.41872        31.52744        -0.35133
C         29.30024        30.81885         0.02345
C         30.33347        32.97709        -0.64431
C         29.15405        33.69003        -0.11981
C         30.47791        35.81823        -0.05330
C         29.22131        35.08259         0.10097
C         30.59728        37.12930         0.71910
C         29.31702        37.94318         0.60387
C         30.65390        40.06460         1.10715
C         29.33397        39.35183         1.10529
C         30.62445        41.53671         1.03605
C         29.40797        42.26055         1.12817
C         30.62893        44.36775         0.47589
C         29.38549        43.64934         0.95292
C         30.55265        45.85630         0.75627
C         29.69646        46.22731         1.95165
C         30.76157        48.55544         1.72595
C         29.87002        47.67821         2.36823
C         30.96195        49.86909         2.21050
C         30.29177        50.28564         3.37611
C         33.05472        20.14474        -0.41947
C         31.85177        20.78719        -0.45822
C         32.95364        22.94703        -0.92291
C         31.78326        22.22954        -0.57998
C         32.97931        24.35291        -0.87573
C         31.83339        25.04118        -0.41236
C         33.10640        27.26729        -0.58632
C         31.73469        26.54140        -0.58535
C         32.85141        28.71691        -1.02045
C         31.75831        29.44448        -0.41486
C         32.89557        31.66068        -1.00787
C         31.79633        30.92447        -0.26262
C         32.87470        33.05808        -1.00487
C         31.58173        33.77259        -0.91145
C         32.81930        36.04000        -0.89140
C         31.59267        35.21297        -0.56654
C         33.06834        37.15418         0.19669
C         31.82258        37.97872         0.40902
C         33.19422        40.02674         0.75817
C         31.88256        39.30628         0.71331
C         33.21500        41.52310         0.95507
C         31.91230        42.25025         1.14425
C         33.20722        44.44160         0.85303
C         31.90610        43.73873         1.08068
C         33.36188        45.73582         1.28675
C         31.30279        46.74503         0.04834
C         32.94681        48.74088         0.43972
C         31.47057        48.20277         0.44165
C         33.04699        50.16975         0.85712
C         31.98616        50.73289         1.60560
C         33.10704        52.88581         1.53112
C         32.01986        52.11137         1.89823
C         35.67178        19.10181         0.31808
C         35.52443        20.30442        -0.48094
C         34.27306        20.83819        -0.75162
C         35.33215        22.86552        -1.91501
C         34.05181        22.10628        -1.56016
C         35.17158        24.37264        -2.15408
C         34.31650        25.07445        -1.06994
C         35.22530        27.26650        -1.94207
C         34.18495        26.56380        -1.39617
C         35.22177        28.75330        -2.04133
C         33.99697        29.51619        -1.62945
C         35.31129        31.67809        -1.47908
C         34.07356        30.96292        -1.38297
C         35.30896        33.08150        -1.31829
C         34.08051        33.81914        -1.18495
C         35.28864        36.02821        -1.48883
C         34.06573        35.22383        -1.14319
C         35.47843        37.24612        -0.55753
C         34.28567        37.99925        -0.14132
C         35.61749        40.08820        -0.02233
C         34.38429        39.33913         0.16858
C         35.71559        41.53336         0.45569
C         34.39903        42.29899         0.48276
C         35.65579        44.40413         0.23419
C         34.39362        43.68320         0.43531
C         35.70797        45.88389         0.37807
C         34.48215        46.58912         0.82117
C         35.53131        48.79171         0.14709
C         34.27036        48.00906         0.36388
C         35.45681        50.24168         0.18203
C         34.23823        50.90704         0.64760
C         35.42752        53.10676         0.66278
C         34.25680        52.29905         0.95866
C         35.54689        54.44209         1.00850
C         38.10502        19.10491        -0.03478
C         36.88055        18.54682         0.55561
C         37.96868        20.32728        -0.85017
C         36.74006        20.91305        -0.99951
C         37.93452        22.99498        -1.76243
C         36.66737        22.21558        -1.71438
C         37.82926        24.49008        -1.74676
C         36.52943        25.08703        -2.30787
C         37.79049        27.32111        -2.16738
C         36.49846        26.58258        -2.32940
C         37.78746        28.75288        -2.04075
C         36.52407        29.51455        -2.04894
C         37.78284        31.61902        -1.72659
C         36.55217        30.95833        -1.69971
C         37.88040        33.07194        -1.44211
C         36.57408        33.83230        -1.26581
C         37.79634        35.98678        -1.97530
C         36.57104        35.25774        -1.51494
C         37.90712        37.39297        -1.43810
C         36.78383        38.00172        -0.70782
C         37.98032        40.19161        -0.82188
C         36.77017        39.45904        -0.48081
C         37.97390        41.63478        -0.65437
C         36.85394        42.29947        -0.19615
C         38.08144        44.55344        -0.30580
C         36.81396        43.74603        -0.11111
C         37.87525        45.99534        -0.72831
C         36.75430        46.66755        -0.33041
C         37.76003        48.89784        -0.94981
C         36.63639        48.12310        -0.36745
C         37.76398        50.39470        -0.75223
C         36.57168        51.00201        -0.13198
C         37.85976        53.23409        -0.22867
C         36.53274        52.46559        -0.06064
C         37.92061        54.58125         0.36464
C         36.76076        55.15768         0.85679
C         40.27560        15.95848        -0.33214
C         39.21855        16.74261        -0.08550
C         40.35625        18.66324        -1.29793
C         39.29956        18.21789        -0.26317
C         40.43754        20.17577        -1.40844
C         39.11697        20.83880        -1.71746
C         40.42592        23.02967        -1.82580
C         39.16024        22.35151        -1.72111
C         40.40553        24.41189        -2.33675
C         39.03758        25.14990        -2.39065
C         40.29819        27.29740        -2.13889
C         38.97722        26.61881        -2.35187
C         40.25096        28.78939        -2.49659
C         38.97938        29.49829        -2.09988
C         40.21970        31.67346        -2.31200
C         38.98164        30.90530        -2.02832
C         40.28543        33.12471        -2.09847
C         39.09969        33.83354        -1.83856
C         40.30906        35.95299        -2.09100
C         39.09955        35.23621        -1.87404
C         40.30963        37.41671        -2.02931
C         39.07712        38.09897        -1.62065
C         40.23993        40.27326        -1.91484
C         39.09040        39.52227        -1.34954
C         40.22961        41.75699        -1.82297
C         39.26852        42.39995        -0.85137
C         40.35538        44.60789        -1.36426
C         39.03561        43.85886        -1.28056
C         40.36281        46.00842        -1.29893
C         39.05425        46.69265        -1.29711
C         40.34113        48.89557        -1.17104
C         39.04995        48.20358        -1.29918
C         40.35539        50.29926        -0.60987
C         39.06538        51.10449        -0.67928
C         40.38137        53.17678        -0.32773
C         39.11401        52.44945        -0.40380
C         40.35029        54.58330        -0.03235
C         39.19310        55.27963         0.32629
C         40.44319        57.39887         0.48160
C         39.26819        56.69639         0.58040
C         42.52482        16.21212         0.61951
C         41.65074        16.52028        -0.59076
C         42.82498        18.76738        -0.71039
C         41.61922        18.00461        -0.85706
C         42.85385        20.20950        -0.98421
C         41.61554        20.88325        -1.35949
C         42.91842        22.96725        -1.81103
C         41.67004        22.33824        -1.63874
C         43.01242        24.43010        -2.12115
C         41.69625        25.21286        -2.33298
C         42.62184        27.55901        -2.92040
C         41.44138        26.62908        -2.96360
C         42.71267        28.77622        -2.35110
C         41.47529        29.49965        -1.92369
C         42.79993        31.67614        -2.25838
C         41.52891        30.93809        -2.39512
C         42.76716        33.06923        -2.34006
C         41.52274        33.80445        -2.26705
C         42.78889        35.94326        -2.45995
C         41.51251        35.22711        -2.26267
C         42.78260        37.44589        -2.36621
C         41.49762        38.13454        -2.12526
C         42.75018        40.26346        -2.08460
C         41.53872        39.57722        -2.07568
C         42.79772        41.74694        -2.16960
C         41.50663        42.51200        -2.03316
C         42.79027        44.61782        -1.60036
C         41.55697        43.92709        -1.61712
C         42.80832        46.04008        -1.47801
C         41.57053        46.74721        -1.41330
C         42.82113        48.90009        -1.33085
C         41.54384        48.20333        -1.33491
C         42.81861        50.38924        -1.39532
C         41.52699        51.10797        -1.13157
C         42.85449        53.17933        -0.67742
C         41.57852        52.52187        -0.69891
C         42.73959        54.47028         0.08085
C         41.60005        55.35690        -0.41756
C         42.88142        57.43145         0.23635
C         41.66986        56.78174         0.07893
C         43.56710        16.97798         0.97966
C         44.99036        19.11483         0.63278
C         43.94323        18.17637         0.20109
C         45.13571        20.34689        -0.05088
C         44.04302        20.89967        -0.83065
C         45.55983        22.82989        -1.58203
C         44.17647        22.20705        -1.53581
C         45.67089        24.30168        -1.99976
C         44.40728        24.99233        -2.42082
C         45.37174        27.25025        -1.76039
C         44.53316        26.47082        -2.50279
C         45.21547        28.72438        -1.58146
C         43.96761        29.47012        -1.94613
C         45.25335        31.62241        -1.94044
C         44.01779        30.94302        -2.10618
C         45.26512        33.03659        -2.01254
C         44.07805        33.77576        -2.56330
C         45.21448        35.92673        -1.91762
C         44.05393        35.23345        -2.20443
C         45.17881        37.36798        -1.72487
C         44.02584        38.11402        -1.92950
C         45.19802        40.26956        -1.72019
C         44.01307        39.56339        -1.88468
C         45.32323        41.72582        -2.12578
C         44.04433        42.49390        -1.88079
C         45.28303        44.59636        -1.39035
C         44.02580        43.85180        -1.66943
C         45.29646        46.07038        -1.53418
C         44.06476        46.76675        -1.47141
C         45.32170        48.92847        -1.14182
C         44.01830        48.20629        -1.38974
C         45.28223        50.43762        -1.35018
C         44.10164        51.13851        -1.27733
C         45.36295        53.34572        -1.00865
C         44.06361        52.58159        -1.02736
C         45.53649        54.87518        -0.90043
C         44.42003        55.86950        -0.97046
C         44.15526        56.80735         0.01642
C         47.13193        19.42188         1.73940
C         45.95975        18.70971         1.57815
C         47.39459        20.58029         0.96539
C         46.35467        21.07907         0.11906
C         47.92743        22.66535        -0.74836
C         46.61800        22.21020        -0.71707
C         48.05887        24.72967        -1.29583
C         46.76040        25.21899        -1.49793
C         47.61069        27.38588        -0.69660
C         46.55432        26.60326        -1.21378
C         47.59261        28.83958        -0.76905
C         46.45348        29.51641        -1.39538
C         47.81324        31.55750        -1.56574
C         46.45686        30.87634        -1.60306
C         47.68767        33.07018        -1.65385
C         46.45336        33.77512        -1.75715
C         47.67868        35.90964        -1.46567
C         46.46658        35.20532        -1.73456
C         47.68556        37.32540        -1.24268
C         46.38579        38.03222        -1.21346
C         47.68857        40.24631        -1.22872
C         46.39019        39.56992        -1.24841
C         47.70893        41.65473        -1.30683
C         46.56264        42.39002        -1.59024
C         47.85461        44.58402        -1.70878
C         46.58840        43.86299        -1.38872
C         47.79462        46.03409        -1.85730
C         46.55888        46.72062        -1.66389
C         47.82458        48.97117        -1.69892
C         46.52552        48.20861        -1.74326
C         47.86226        50.43847        -1.39918
C         46.56606        51.17867        -1.28351
C         47.79526        53.12599        -0.37419
C         46.58991        52.55079        -0.73589
C         47.81773        54.52796        -0.00371
C         46.76705        55.34422        -0.23734
C         49.75402        20.75557         1.83508
C         48.67835        21.24728         1.04508
C         50.09071        23.22173         0.42024
C         48.91598        22.39325         0.24077
C         50.16166        24.64518         0.08728
C         49.04902        25.36062        -0.53009
C         49.82765        27.50582         0.37078
C         48.83733        26.75956        -0.25659
C         49.47864        28.88008         0.86604
C         48.59259        29.58153        -0.17098
C         49.98246        31.66190        -0.10603
C         48.57449        31.09755        -0.28241
C         50.48601        32.75787        -0.76665
C         48.84391        33.82534        -1.71271
C         50.14379        35.84019        -0.96801
C         48.91624        35.20584        -1.39511
C         50.12978        37.27436        -0.87631
C         48.88350        37.99343        -1.00099
C         50.17833        40.20254        -0.69968
C         48.86496        39.46764        -0.79886
C         50.22233        41.63244        -1.04353
C         48.94469        42.44227        -0.91914
C         50.28394        44.15761        -2.12395
C         48.99458        43.75534        -1.69209
C         50.29756        46.29946        -2.16307
C         49.02322        46.83898        -1.88589
C         50.27807        48.85083        -1.17752
C         49.06467        48.21232        -1.54111
C         50.28047        50.25541        -0.76157
C         49.08135        51.01167        -0.78668
C         50.24452        52.92156         0.14471
C         49.04144        52.34929        -0.32849
C         50.97524        21.38823         1.80748
C         52.37707        23.38450         1.37365
C         51.15336        22.64687         1.16255
C         52.35621        24.80045         1.21200
C         51.21146        25.42106         0.61166
C         51.95647        27.54551         1.71812
C         51.20932        26.94279         0.50246
C         51.92236        29.06346         1.81714
C         50.67276        29.69254         1.39520
C         52.06992        31.85503         1.30415
C         50.79462        31.18335         1.01350
C         52.19778        33.20059         0.86027
C         51.37670        33.69474        -0.15180
C         52.45215        35.86606        -0.13258
C         51.31142        35.12741        -0.49651
C         52.51848        37.25242        -0.33936
C         51.35260        37.97614        -0.63522
C         52.64645        40.07916        -0.84137
C         51.44386        39.43449        -0.73929
C         52.73577        41.50247        -1.34331
C         51.43099        42.24891        -1.23433
C         52.64449        44.48622        -1.19744
C         51.48703        43.61868        -1.67058
C         52.74698        45.93145        -1.72393
C         51.50009        46.78614        -1.63884
C         52.72972        48.71022        -0.62875
C         51.47855        48.09507        -1.12062
C         52.75880        50.16737        -0.40652
C         51.48857        50.88172        -0.35115
C         51.43424        52.21489         0.11060
C         54.69423        23.49476         2.10192
C         53.56767        22.75213         1.80315
C         54.64116        24.91078         2.08610
C         53.47098        25.55691         1.67662
C         54.15426        27.63340         2.95769
C         53.41617        27.07055         1.73495
C         54.19166        29.16556         2.91141
C         53.01632        29.81284         2.30411
C         54.22102        32.02687         2.52079
C         53.05589        31.24607         2.10450
C         54.35367        33.36053         2.16351
C         53.19440        34.09725         1.52088
C         54.90727        35.80320         0.66746
C         53.59210        35.14708         0.51200
C         55.03488        37.18980         0.09891
C         53.76084        38.02045         0.03982
C         55.05352        40.12311        -0.17053
C         53.93934        39.29149        -0.81733
C         55.04133        41.62088        -0.20491
C         53.91238        42.34353        -0.85287
C         55.20537        44.44465        -0.83001
C         53.94762        43.70383        -1.01585
C         55.25566        45.79853        -1.12149
C         54.05306        46.60247        -1.47992
C         55.28836        48.78966        -0.85122
C         54.04793        47.99406        -0.89711
C         55.21971        50.10296        -0.45417
C         53.98128        50.78615        -0.25519
C         57.08059        25.13798         2.72813
C         55.75084        25.70707         2.62418
C         56.44412        27.67312         3.93617
C         55.51734        27.00130         3.03286
C         56.30257        29.11822         4.20393
C         55.21378        29.87117         3.53870
C         56.24052        32.32312         4.06265
C         55.17607        31.38982         3.49129
C         56.40470        33.79659         3.63429
C         55.53891        34.17143         2.44312
C         57.21082        35.92942         1.71219
C         55.81632        35.32440         1.74461
C         57.27604        37.40269         1.31506
C         56.28852        37.96008         0.34628
C         57.52438        40.12065         0.30949
C         56.30905        39.42972         0.19474
C         57.57241        41.50209         0.06480
C         56.33237        42.37243         0.14393
C         57.66432        44.37309        -0.58499
C         56.43448        43.72767        -0.53625
C         57.75697        45.78367        -0.84509
C         56.53676        46.50032        -1.21094
C         57.83103        48.66421        -0.66391
C         56.57311        48.09667        -1.12374
C         58.07308        25.75498         3.41739
C         58.84951        27.75054         4.81630
C         57.78781        26.94405         4.22499
C         58.50216        28.93555         5.38943
C         57.24227        29.57918         5.12161
C         58.66028        32.30723         4.70171
C         57.40547        31.81545         4.81713
C         58.88738        33.51374         3.93525
C         57.85854        34.25438         3.46072
C         59.45603        36.15500         2.69627
C         58.03892        35.69606         2.99931
C         59.69217        37.28715         2.01040
C         58.58100        38.11529         1.46495
C         59.95827        40.19155         0.97998
C         58.83552        39.29523         0.48968
C         60.01276        41.48804         0.65176
C         58.89187        42.15335        -0.06237
C         60.16502        44.41158        -0.16298
C         58.93981        43.62383        -0.40901
C         60.16320        45.75598        -0.29551
C         58.95822        46.48179        -0.64830
C         58.96840        47.90993        -0.56515
O         28.65627        37.83017        -0.69451
O         54.67677        34.77572        -0.38327
O         36.48052        37.14078         0.47997
O         28.11371        45.62461         0.16743
O         37.44848        33.42406        -0.09533
O         49.39621        39.91770         0.52636
O         39.59727        24.51543        -3.56072
O         25.62393        45.68432         0.49345
O         45.66356        54.20324        -2.19461
O         31.82227        43.11950         2.38115
O         35.99763        22.18569        -3.04457
O         29.99872        39.55278         2.36971
O         36.90868        53.11448        -1.32472
O         45.09826        22.00970        -2.69067
O         41.94903        50.87040        -2.49772
O         56.03685        37.27545        -0.94010
O         40.82097        31.27854        -3.60834
O         32.88191        29.05738        -2.46584
O         57.48871        38.36596         2.39499
O         45.28787        24.40427        -3.42326
O         53.39504        47.94023         0.42845
O         50.02394        33.14748        -2.02083
O         54.52692        40.90083         0.98554
O         47.35469        51.19456        -2.54678
O         37.39685        49.79526        -2.04967
O         43.23070        54.54327         1.20066
O         56.63432        47.37667        -2.37755
O         38.85443        47.43697        -2.53922
O         39.72930        41.14597        -3.03253
O         35.74543        29.25887        -3.30652
O         42.35861        25.23282        -1.04920
O         50.36512        45.21159        -3.03128
O         42.85127        36.78102        -3.68296
O         43.76141        27.02249        -3.52667
O         33.50399        48.34454        -0.87285
O         43.98693        17.98449        -1.23922
O         33.69649        27.24488         0.68771
O         47.10812        48.71055        -2.96328
O         36.59095        25.77257        -3.58270
O         56.64207        26.83850         5.13508
O         50.13505        30.75930         2.26395
O         57.11893        30.81751         5.75503
O         30.79881        36.71300         2.05497
O         35.60285        46.43837         1.77347
O         30.67537        33.37872        -2.03109
O         44.22354        29.06683        -0.50784
O         46.16103        38.80367         0.00226
O         53.58699        46.30603        -2.85090
O         48.33058        23.46424        -1.82189
O         59.23693        38.76976        -0.73156
O         39.27111        19.06604         0.90821
O         59.15698        42.58899        -1.44945
O         33.51133        40.61081         2.07996
O         29.04011        26.89859         2.09564
O         28.32651        47.31684         4.23657
O         42.09103        42.28814        -3.35251
O         54.99600        32.07187         4.79889
O         29.08473        24.33601         1.83385
O         31.28551        28.02564         1.46132
O         45.92703        44.21534        -0.10793
O         32.59936        46.28716         2.29413
H         33.09024        47.03146         2.69728
O         33.34350        36.48675         1.43644
H         32.47631        36.45858         1.95249
O         33.46415        21.67129        -2.82198
H         34.20435        21.58953        -3.46577
O         53.57459        38.42106         1.42123
H         52.80496        39.02701         1.47573
O         34.99446        25.00605         0.19603
H         34.62048        25.77263         0.73158
O         38.37994        43.86607        -2.55974
H         38.90673        43.33252        -3.19367
O         32.22606        31.12188         1.15103
H         32.00864        30.31424         1.66894
O         25.64238        35.59778         2.63215
H         26.38663        36.14043         2.97198
O         45.57073        48.79558         0.30720
H         44.73014        48.96147         0.78463
O         34.42068        24.51807        -3.37081
H         35.02205        24.92934        -4.03813
O         35.06493        36.63303        -2.81828
H         34.10354        36.89438        -2.84385
O         37.61082        36.13534        -3.43857
H         36.69126        36.47393        -3.58381
O         25.39910        41.67103        -0.52489
H         26.22630        41.29844        -0.91804
O         32.49501        36.78551        -2.12530
H         31.95918        36.19306        -2.69671
O         51.90844        27.32090        -0.73530
H         51.44693        26.88405        -1.48294
O         48.81488        42.78177         0.49074
H         48.78566        41.92672         0.98028
O         41.55586        55.31622        -1.86843
H         40.75665        55.80631        -2.15207
O         24.84898        30.89307         3.17839
H         24.91327        31.85258         3.37422
O         45.48708        41.72196        -3.59450
H         44.61145        41.52663        -3.99489
O         51.22832        27.01190         2.84137
H         51.75784        27.16717         3.65945
O         30.84265        49.00797        -0.58919
H         31.35259        48.89157        -1.41901
O         43.83115        55.93039        -2.16653
H         44.22314        55.21664        -2.73044
O         44.27684        33.77334        -4.03925
H         43.60067        34.37344        -4.42470
O         24.04068        26.69239        -0.71126
H         23.97365        27.66048        -0.85952
O         40.56632        27.08089        -0.73943
H         40.76896        27.94736        -0.30185
O         54.14538        27.62349         0.61789
H         53.62207        27.45421        -0.20212
O         53.47489        27.25001         4.18757
H         54.10103        27.37759         4.93308
O         39.98933        42.36036         0.40321
H         39.54660        42.98368         1.03040
O         40.60149        50.11946         0.83413
H         40.69788        51.01151         1.23346
O         31.10870        26.74056        -1.88489
H         31.70454        26.38302        -2.57829
O         36.11689        41.44228         1.86662
H         35.36294        41.00629         2.33851
O         24.48140        42.20302         2.98340
H         23.68960        42.61379         3.38805
O         47.82662        31.61924         0.84453
H         48.31847        31.37380         1.66302
O         42.23016        15.84663        -1.73757
H         43.05469        16.33770        -1.96431
O         48.57718        31.05767        -2.68580
H         48.20449        31.43324        -3.50989
O         57.56081        36.52133         4.07560
H         56.77761        36.08726         4.48768
O         48.60790        28.65984         2.02459
H         48.66986        29.46119         2.59095
O         30.72111        44.09041        -0.94106
H         30.04510        44.63759        -1.39457
O         55.85509        34.56163         4.75259
H         55.10140        34.03621         5.11046
O         27.88224        40.36129        -0.52940
H         28.04420        39.48407        -0.97212
O         23.84376        37.87861        -0.52311
H         24.42812        38.48715        -1.02468
O         24.06499        35.18240        -0.65687
H         23.87115        36.13681        -0.84623
O         56.26490        42.70277         1.56953
H         55.73012        41.98797         1.99441
O         57.88020        35.18837         0.65669
H         57.43703        35.39774        -0.19553
O         38.73892        44.63344         0.99814
H         38.06848        44.91504         1.65802
O         41.04238        26.45405        -4.32644
H         41.84813        26.40875        -4.88239
O         30.02213        45.38215         3.07413
H         31.00040        45.33403         3.16074
O         39.96832        18.09833        -2.57655
H         39.46613        18.79114        -3.07375
O         28.20103        41.42015         2.99033
H         29.04224        40.93777         3.19761
O         52.52758        34.81448         2.60330
H         52.21395        34.15420         3.25669
O         52.99287        41.33604        -2.79078
H         52.95190        42.22361        -3.21022
O         26.98436        39.11278         2.84040
H         27.17177        39.99258         3.26015
O         54.28674        38.92471        -2.15597
H         54.02810        39.66353        -2.75403
O         52.25106        44.76471         0.19346
H         52.13023        43.91253         0.66488
O         38.77152        20.44590        -3.09374
H         37.97935        20.95975        -3.37029
O         41.39827        29.55595        -0.47111
H         42.31936        29.50869        -0.11857
O         31.90599        46.33912        -1.10617
H         32.49766        47.05605        -1.44403
O         37.82991        24.91032        -0.35005
H         38.66544        24.61728         0.07078
O         40.34215        28.88089        -3.93048
H         39.60349        28.37019        -4.32446
O         27.58457        31.32166        -1.54982
H         28.23351        31.83455        -2.07854
H         22.42752        26.57691         1.78003
H         22.56231        28.97380         2.33530
H         22.31400        30.88759         1.68805
H         22.20291        33.26714         1.14338
H         22.40373        35.20983         2.04278
H         22.42327        37.65426         2.20552
H         22.17250        39.65476         0.77723
H         22.13202        42.09527         1.08290
H         22.22225        44.18856         1.34922
H         22.39696        46.33583         2.40362
H         25.69840        23.27537         1.01942
H         23.55038        24.46018         1.03926
H         26.05300        47.83424         5.27594
H         23.79694        47.25877         4.37526
H         27.19076        22.42596        -0.09485
H         28.89160        49.74454         4.94050
H         29.25532        21.23446        -0.56385
H         30.46779        51.28789         3.78830
H         33.08523        19.08045        -0.14679
H         30.93861        20.22579        -0.21790
H         33.08278        53.96380         1.73571
H         31.16938        52.58686         2.40413
H         34.78043        18.66124         0.78377
H         34.71421        54.96395         1.49865
H         36.97378        17.67599         1.21870
H         36.78583        56.18463         1.24490
H         40.18899        14.86381        -0.26852
H         38.24527        16.29575         0.16810
H         40.45540        58.46898         0.73843
H         38.35818        57.23374         0.87649
H         42.28472        15.30986         1.20196
H         42.87495        58.40370         0.75879
H         44.14969        16.72538         1.87768
H         44.88314        56.90235         0.83793
H         47.88401        19.04510         2.44418
H         45.81756        17.77799         2.14159
H         48.70768        54.94970         0.48012
H         46.80375        56.39155         0.09428
H         49.63612        19.84743         2.44016
H         50.26568        53.94910         0.52797
H         51.80163        20.96759         2.39602
H         52.34816        52.70808         0.46688
H         55.61249        22.98358         2.42148
H         53.61281        21.65705         1.87611
H         56.13959        50.69730        -0.36441
H         54.03451        51.86395        -0.05037
H         57.30263        24.22162         2.16280
H         57.85536        49.71270        -0.33556
H         59.10649        25.38067         3.37832
H         59.88046        27.37151         4.85229
H         59.24037        29.51968         5.95643
H         59.48089        31.88385         5.29472
H         59.92313        33.86916         3.85330
H         60.31254        35.58023         3.07828
H         60.72630        37.60048         1.80231
H         60.80431        39.71995         1.50175
H         60.88432        42.09414         0.94000
H         61.10090        43.87801         0.05038
H         61.08676        46.33164        -0.13733
H         59.90615        48.39429        -0.25492
