         634
 CSIRO Nanostructure Databank - Neutral Graphene Oxide Data Set
C         23.12543        70.01156         0.57642
C         23.08724        71.41438         1.00090
C         21.90161        72.24605         0.82981
C         23.19715        74.30577         1.11055
C         21.96944        73.61333         0.98932
C         25.51309        65.79184        -0.15587
C         25.48040        67.20956        -0.11347
C         24.32529        67.91040         0.19837
C         25.59597        70.05037         0.37027
C         24.31577        69.33619         0.38821
C         25.64961        71.44377         0.64804
C         24.44389        72.16262         1.08648
C         25.65617        74.30883         0.86232
C         24.42980        73.63590         1.01509
C         27.92492        61.51210        -0.43406
C         27.89339        62.90564        -0.53922
C         26.71571        63.65737        -0.34998
C         27.95958        65.80693        -0.52166
C         26.69700        65.07227        -0.38632
C         27.98259        67.21490        -0.43286
C         26.69936        67.97501        -0.52979
C         28.01359        70.06066        -0.04309
C         26.77123        69.37714        -0.00916
C         28.05430        71.46737         0.19033
C         26.84934        72.16481         0.48977
C         28.09813        74.28626         0.55400
C         26.87351        73.60753         0.65571
C         30.36900        57.19578        -0.71453
C         30.36043        58.59452        -0.78259
C         29.16290        59.35679        -0.64749
C         30.37848        61.49748        -0.60408
C         29.14311        60.76616        -0.57120
C         30.40474        62.90985        -0.62843
C         29.13744        63.63039        -1.00501
C         30.40216        65.78097        -0.63554
C         29.16978        65.09545        -0.64859
C         30.43660        67.19935        -0.52392
C         29.21062        67.91688        -0.43244
C         30.47134        70.03672        -0.29429
C         29.23890        69.35080        -0.28813
C         30.50041        71.46168        -0.11476
C         29.29487        72.16864         0.12243
C         30.54795        74.27681         0.25168
C         29.31773        73.59651         0.31311
C         32.87733        52.91439        -1.16533
C         32.84063        54.37694        -1.52664
C         31.60374        55.08050        -1.02526
C         32.84504        57.21086        -1.23187
C         31.57807        56.44434        -0.90495
C         32.82963        58.62237        -0.71897
C         31.64384        59.29793        -0.77870
C         32.94211        61.51304        -0.57564
C         31.62993        60.77055        -0.78393
C         32.82327        62.91156         0.03212
C         31.60176        63.62482        -0.48358
C         32.87666        65.72908        -0.63937
C         31.64425        65.04460        -0.61480
C         32.91298        67.16501        -0.65247
C         31.68914        67.89587        -0.53948
C         32.94938        70.01272        -0.48558
C         31.70874        69.31706        -0.45057
C         32.96816        71.45725        -0.35620
C         31.74365        72.16172        -0.15116
C         33.00293        74.27427        -0.02787
C         31.76021        73.58339         0.02878
C         35.25815        48.62934        -0.45535
C         35.25635        50.05800        -0.64349
C         34.06876        50.78017        -0.76482
C         35.33073        52.88121        -0.99791
C         34.06248        52.20449        -0.97411
C         35.39157        54.32830        -1.39330
C         34.11961        55.09920        -1.16148
C         35.34843        57.19765        -0.72147
C         34.12553        56.45200        -0.95758
C         35.35232        58.53287        -0.35407
C         34.04142        59.23805        -0.05103
C         35.25829        61.43093         0.34481
C         34.11770        60.74146        -0.20023
C         35.32658        62.96678         0.40757
C         34.10642        63.66214        -0.15896
C         35.39905        65.65889        -0.85531
C         34.11517        64.98167        -0.52380
C         35.44885        67.18223        -1.05270
C         34.14135        67.87481        -0.71050
C         35.46147        69.97960        -0.70136
C         34.15481        69.27329        -0.63614
C         35.46887        71.47203        -0.57041
C         34.18089        72.17930        -0.39315
C         35.49256        74.34802        -0.39746
C         34.19215        73.58875        -0.23592
C         37.68541        44.32153         0.01354
C         37.67833        45.70219        -0.05897
C         36.35352        46.43394         0.00498
C         37.69983        48.58669        -0.31663
C         36.42516        47.91589        -0.29826
C         37.72660        50.01377        -0.54024
C         36.52582        50.73502        -0.69492
C         37.77828        52.87593        -0.90982
C         36.53943        52.17522        -0.86786
C         37.81294        54.30221        -0.81850
C         36.62770        55.02261        -0.91470
C         37.78744        57.06812        -0.12554
C         36.67598        56.52234        -1.01612
C         37.83770        58.57422        -0.14921
C         36.59508        59.23617        -0.11713
C         37.84500        61.38911         0.20939
C         36.59081        60.64143         0.29757
C         37.82497        62.81825         0.03521
C         36.64078        63.52647        -0.08342
C         37.97322        65.70680        -0.59036
C         36.67083        64.90483        -0.62594
C         37.77620        67.03162         0.18466
C         36.62667        67.84701        -0.34336
C         37.80888        69.92686         0.27198
C         36.66689        69.22179        -0.26102
C         37.82498        71.37226         0.33719
C         36.69040        72.14020        -0.06458
C         37.88270        74.20499         0.38276
C         36.70804        73.54420         0.01343
C         40.14229        40.03901         0.49692
C         40.12455        41.44649         0.27869
C         38.91334        42.17504         0.18134
C         40.15001        44.29436         0.01377
C         38.90556        43.57579         0.06754
C         40.15460        45.71095        -0.08448
C         38.91080        46.43378        -0.09401
C         40.18612        48.59669         0.09190
C         38.89908        47.85591        -0.16862
C         40.18343        50.00815        -0.43408
C         38.99497        50.68857        -0.65991
C         40.28713        52.84681        -0.87702
C         39.02401        52.10110        -1.21022
C         40.31137        54.28910        -0.77085
C         39.08615        55.01186        -0.67102
C         40.31648        57.09552        -0.20451
C         39.10816        56.39425        -0.39787
C         40.32803        58.52821         0.07096
C         39.06039        59.25239         0.06808
C         40.30247        61.40290         0.32181
C         39.06152        60.67979         0.17880
C         40.31935        62.78335         0.30295
C         39.10010        63.53683         0.04222
C         40.27374        65.65465         0.61564
C         39.12713        64.91059        -0.01992
C         40.37260        67.10959         0.14669
C         39.05553        67.83044         0.30780
C         40.15626        69.80914         1.35176
C         39.01146        69.19290         0.54702
C         40.15822        71.36606         1.43715
C         38.99408        72.05463         0.74676
C         40.27836        74.16371         0.99746
C         39.04478        73.47339         0.72007
C         42.62181        35.81129         0.90408
C         42.58214        37.15992         1.04986
C         41.24885        37.87127         1.02748
C         42.58091        40.02134         0.60007
C         41.32681        39.34016         0.67796
C         42.57649        41.40726         0.34157
C         41.37611        42.13805         0.21032
C         42.59814        44.26954        -0.14136
C         41.38233        43.57442         0.04276
C         42.63833        45.67323        -0.30425
C         41.40794        46.40868        -0.21990
C         42.65718        48.50189        -0.42808
C         41.43265        47.82003        -0.27511
C         42.66668        49.93918        -0.46710
C         41.43982        50.67715        -0.54398
C         42.74008        52.79296        -0.72457
C         41.44673        52.10121        -0.71160
C         42.79808        54.28831        -0.72161
C         41.52506        55.00376        -0.61834
C         42.80443        57.06092        -0.10427
C         41.55710        56.39097        -0.30997
C         42.84365        58.47512         0.39718
C         41.51874        59.18863         0.29887
C         42.83482        61.36383         0.30910
C         41.55067        60.64060         0.69608
C         42.80471        62.80551         0.39932
C         41.57872        63.51086         0.42074
C         42.78726        65.63553         0.66701
C         41.57641        64.91774         0.50381
C         42.77925        67.09687         0.80361
C         41.55915        67.80790         0.76547
C         42.72508        69.86447         1.30010
C         41.51869        69.18329         1.06524
C         42.70385        71.33336         1.64928
C         41.48732        71.97848         0.94806
C         42.72809        74.15749         1.19917
C         41.48845        73.48912         1.10350
C         45.08584        32.93024         0.90902
C         43.85323        33.66417         0.93105
C         45.04936        35.74600         1.49975
C         43.82472        35.02849         1.11094
C         45.09713        37.20213         1.30639
C         43.80011        37.96150         1.47014
C         45.06022        39.94957         0.61704
C         43.84280        39.33547         0.84154
C         45.07627        41.29674        -0.07505
C         43.88948        42.14345         0.42149
C         45.14852        44.19829        -0.42230
C         43.84060        43.48852        -0.26158
C         45.14540        45.66963        -0.40273
C         43.89820        46.36448        -0.42371
C         45.14666        48.49079        -0.50695
C         43.90623        47.79024        -0.47344
C         45.14410        49.91728        -0.44933
C         43.91190        50.59946        -0.41323
C         45.18857        52.77796        -0.00599
C         43.90835        52.04984        -0.20170
C         45.23282        54.24463        -0.17013
C         44.05309        54.96398        -0.33551
C         45.31003        57.06211        -0.14022
C         44.04654        56.38263        -0.20585
C         45.30932        58.53304        -0.31783
C         43.95178        59.25515        -0.35421
C         45.33304        61.48675        -0.07247
C         44.01597        60.70329         0.08941
C         45.26103        62.83011         0.59975
C         44.03443        63.51575         0.58585
C         45.21035        65.64507         1.21062
C         43.98395        64.92530         0.80764
C         45.29989        67.08207         0.76520
C         43.98652        67.79702         0.97625
C         45.22126        69.91687         1.26930
C         43.96972        69.19311         1.17838
C         45.21292        71.33632         1.28071
C         43.98990        72.04490         1.29491
C         45.20951        74.17029         1.13833
C         43.96901        73.46684         1.22007
C         46.29569        33.54113         1.05408
C         47.58972        35.72967         1.17921
C         46.38364        34.95440         1.43675
C         47.56761        37.12044         1.11554
C         46.30220        37.85705         1.14369
C         47.53437        39.95680         0.67176
C         46.31843        39.27712         0.83586
C         47.57023        41.37747         0.39188
C         46.36883        42.07584         0.11128
C         47.60915        44.19351        -0.03247
C         46.39312        43.46520        -0.09096
C         47.62329        45.62378        -0.21857
C         46.37682        46.34774        -0.34890
C         47.62703        48.47105        -0.48528
C         46.40229        47.78239        -0.44519
C         47.62977        49.94269        -0.85699
C         46.38262        50.65246        -0.41667
C         47.66342        52.73015         0.02720
C         46.43133        52.01456        -0.16824
C         47.65396        54.11141         0.26187
C         46.46993        54.90066         0.06947
C         47.78741        56.99531         0.25082
C         46.50410        56.33055         0.03161
C         47.92312        58.49090        -0.01826
C         46.61059        59.28364        -0.11435
C         47.68411        61.33905         0.86123
C         46.56590        60.69525         0.31940
C         47.71287        62.72522         1.15973
C         46.38623        63.35678         1.46132
C         47.75135        65.58662         1.52481
C         46.44594        64.87899         1.54164
C         47.69204        67.06737         1.86029
C         46.48374        67.80722         1.33304
C         47.71281        69.93809         1.49896
C         46.46429        69.19771         1.37239
C         47.67313        71.36743         1.43541
C         46.46639        72.05510         1.30120
C         47.66693        74.21353         1.05064
C         46.43536        73.50607         1.19164
C         48.77936        37.85138         0.97521
C         50.01041        39.96187         0.76482
C         48.79140        39.24903         0.81736
C         50.04780        41.36552         0.58533
C         48.80428        42.07845         0.39561
C         50.07166        44.19113         0.16102
C         48.83016        43.48808         0.18514
C         50.09358        45.59788        -0.08501
C         48.84681        46.31524        -0.23762
C         50.09463        48.43647        -0.46193
C         48.87361        47.76039        -0.40060
C         50.15293        49.91150        -0.76589
C         48.88885        50.65833        -0.43475
C         50.16009        52.59709         0.53079
C         48.89744        51.95707        -0.01431
C         50.16451        54.10210         0.46764
C         48.86588        54.78385         0.85411
C         50.18753        56.93349         1.08008
C         48.88883        56.28332         0.63331
C         50.23099        58.42204         0.89949
C         48.92135        59.10465         0.93917
C         50.17293        61.22908         1.66247
C         48.87002        60.54437         1.26249
C         50.14410        62.73607         1.52593
C         48.94950        63.42479         1.39466
C         50.22124        65.62083         1.56483
C         48.93764        64.89800         1.49267
C         50.16293        67.08404         1.54287
C         48.97760        67.79736         1.56242
C         50.17484        69.97783         1.27732
C         48.94305        69.23873         1.49714
C         50.17531        71.38337         1.20748
C         48.94917        72.14251         1.64981
C         50.10882        74.22059         0.84389
C         48.90096        73.56064         1.12365
C         51.26466        42.07235         0.55194
C         52.52875        44.17826         0.26447
C         51.30568        43.47546         0.33311
C         52.56379        45.56843        -0.00104
C         51.33082        46.26742        -0.18449
C         52.62358        48.43066        -0.28228
C         51.37703        47.67954        -0.68648
C         52.61685        49.81425        -0.24359
C         51.41108        50.58402        -0.28666
C         52.61078        52.70869        -0.04431
C         51.41623        51.95961        -0.00526
C         52.63094        54.11182         0.12813
C         51.36497        54.82194         0.38513
C         52.58580        56.99829         0.06294
C         51.38338        56.22712         0.51715
C         52.64008        58.44794         0.51612
C         51.40190        59.13572         0.82991
C         52.54793        61.30794         0.82148
C         51.39817        60.59114         0.99029
C         52.48316        62.81955         0.71673
C         51.47035        63.42286         1.75668
C         52.78787        65.59114         1.74074
C         51.41556        64.93397         1.61766
C         52.73582        67.11895         1.56246
C         51.42381        67.85094         1.55542
C         52.60231        69.95233         0.87783
C         51.40763        69.27493         1.16155
C         52.58279        71.37359         0.68528
C         51.36734        72.08767         0.90982
C         52.53452        74.18616         0.38197
C         51.34542        73.52238         0.75275
C         53.80161        46.27406        -0.07187
C         55.10356        48.36548        -0.12564
C         53.86666        47.69154        -0.14813
C         55.19699        49.81281         0.00649
C         53.86615        50.56358         0.02161
C         55.13517        52.72510        -0.21490
C         53.86000        51.98393        -0.48418
C         55.08333        54.11045        -0.14178
C         53.85219        54.81672         0.05846
C         55.07954        57.06405         0.04213
C         53.87052        56.27080         0.47768
C         55.07516        58.44730         0.12934
C         53.82538        59.13508         0.45262
C         55.08878        61.36597         0.32415
C         53.84512        60.59799         0.68511
C         55.01693        62.84784         0.16438
C         53.81833        63.53862         0.65000
C         54.98130        65.68185         0.40065
C         53.83697        64.89253         0.87554
C         55.13712        67.09043         0.86591
C         53.89668        67.85923         1.04032
C         55.05015        69.91658         0.33114
C         53.85769        69.22112         0.76534
C         54.95041        71.31619        -0.22433
C         53.74917        72.07814         0.27680
C         54.89034        74.17507        -0.52548
C         53.71663        73.47301         0.12135
C         56.40110        50.60337        -0.27449
C         57.61435        52.75747        -0.34476
C         56.39660        52.00567        -0.28148
C         57.62748        54.16378        -0.41322
C         56.31995        54.86492        -0.45354
C         57.55503        57.10305        -0.39061
C         56.29063        56.36148        -0.39083
C         57.50009        58.48616        -0.38767
C         56.28037        59.20081        -0.15239
C         57.45229        61.34749        -0.48214
C         56.28172        60.62511        -0.17503
C         57.36400        62.82023        -0.78556
C         56.16754        63.52000        -0.17691
C         57.47222        65.71451        -0.32417
C         56.18309        64.98953        -0.20523
C         57.51760        67.10350        -0.12067
C         56.38497        67.82296         0.51036
C         57.49158        69.98205        -0.02149
C         56.27970        69.27613         0.27611
C         57.47134        71.41554        -0.06897
C         56.24057        72.09604        -0.10613
C         57.40807        74.21703        -0.37220
C         56.22016        73.50259        -0.28206
C         58.80165        54.93105        -0.48227
C         60.00485        57.08295        -0.39510
C         58.81611        56.36912        -0.46813
C         59.98533        58.57143        -0.13904
C         58.76044        59.20580        -0.79036
C         59.90729        61.41166        -0.72815
C         58.70621        60.70115        -0.62362
C         59.90155        62.85807        -0.74544
C         58.67901        63.55897        -0.64237
C         59.89266        65.68830        -0.82324
C         58.68350        64.98397        -0.62268
C         59.85925        67.18282        -1.01910
C         58.68129        67.85458        -0.37536
C         59.93926        70.00077        -0.38656
C         58.69846        69.26752        -0.24246
C         59.92193        71.42025        -0.21595
C         58.71100        72.13634        -0.12262
C         59.87648        74.28458        -0.47806
C         58.68433        73.57392        -0.27282
C         61.22408        59.31408        -0.55457
C         62.38001        61.43860        -0.91626
C         61.18033        60.69297        -0.75944
C         62.38278        62.85256        -0.95775
C         61.13393        63.56761        -0.86225
C         62.36734        65.69810        -1.08449
C         61.13402        64.99608        -0.94416
C         62.37071        67.19447        -1.30814
C         61.17473        67.81217        -0.55850
C         62.40142        70.01196        -0.61693
C         61.15945        69.32337        -0.58460
C         62.43968        71.41723        -0.43306
C         61.19530        72.12377        -0.11014
C         62.44367        74.38983        -0.63718
C         61.16601        73.68874        -0.20599
C         63.59128        63.57640        -1.04738
C         64.83221        65.72029        -1.05921
C         63.60560        64.99547        -1.07908
C         64.87585        67.13558        -0.91767
C         63.65414        67.87812        -0.90708
C         64.88694        69.97298        -0.59271
C         63.64988        69.27038        -0.72218
C         64.90026        71.39289        -0.48539
C         63.66869        72.12835        -0.45144
C         64.91552        74.22086        -0.36932
C         63.70197        73.56604        -0.43503
C         66.09673        67.83149        -0.75831
C         67.34801        69.94549        -0.50957
C         66.12505        69.23972        -0.61947
C         67.37473        71.35246        -0.40579
C         66.14131        72.08503        -0.40495
C         67.39477        74.18181        -0.23312
C         66.15786        73.50841        -0.32319
C         68.59761        72.07424        -0.30737
C         68.59604        73.46122        -0.22163
O         55.13008        65.58620        -1.07240
O         45.55976        65.40924         2.62533
O         23.80509        71.62760         2.27527
O         26.51215        68.22148        -2.07198
O         32.42206        61.35064        -1.91883
O         42.98543        53.51077        -1.98272
O         46.07744        59.03082        -1.49322
O         54.80596        61.00220         1.73266
O         48.44065        59.49836         2.26418
O         36.05907        64.94628        -1.97622
O         44.44009        43.59874        -1.59690
O         35.64444        70.82326        -1.88868
O         56.11142        55.62806        -1.70212
O         35.82271        60.83697         1.59029
O         45.70773        35.26873         2.71218
O         56.14797        67.34997         1.89765
O         52.20830        67.70509         2.81247
O         61.28963        73.00412         1.06506
O         54.50444        50.32349         1.26706
O         44.33556        52.41284         1.16284
O         38.30463        66.06617        -1.96192
H         38.13320        65.28283        -2.52911
O         53.27282        65.37330         3.08624
H         52.78905        66.00142         3.66949
O         29.07098        63.59233        -2.47869
H         29.97961        63.73071        -2.82157
O         26.29949        66.95235        -2.69805
H         27.21238        66.62747        -2.89602
O         43.26595        58.46157         1.80596
H         42.75097        57.76641         2.26818
O         41.57804        71.68207        -0.46401
H         42.31907        72.19977        -0.84187
O         35.64597        67.43723        -2.46713
H         36.29606        66.76938        -2.78681
O         47.58361        49.96755        -2.32904
H         48.52661        49.94019        -2.63916
O         39.95603        65.73994         2.06279
H         40.04970        64.83736         2.43890
O         54.66681        74.11722        -1.95918
H         53.76956        74.46907        -2.13713
O         43.50665        59.24618        -1.73110
H         44.27792        59.46674        -2.29787
O         39.02778        51.95115        -2.69583
H         39.93555        51.68598        -2.95935
O         43.65533        38.18948         2.91925
H         43.88334        37.34815         3.37120
O         40.00482        71.76822         2.82726
H         39.51350        71.04608         3.28441
O         50.16149        52.26940         1.96673
H         49.53802        52.91073         2.39770
O         52.57342        57.01396        -1.39600
H         51.72986        57.41849        -1.68941
O         51.86133        63.09201        -0.58006
H         52.52036        62.92174        -1.28574
O         46.04221        62.86353         2.80615
H         45.54172        63.59195         3.24616
O         50.22741        56.75683         2.56181
H         49.66690        57.46595         2.94852
O         58.91381        58.98193        -2.22472
H         58.14883        59.39244        -2.67970
O         53.77609        51.86270        -1.94780
H         53.80216        52.76842        -2.32435
O         50.27517        49.99224        -2.25000
H         50.88880        49.25594        -2.51694
O         44.92330        41.00119        -1.48356
H         44.85657        41.87004        -1.95364
O         35.53777        54.32032        -2.90022
H         36.29811        53.72834        -3.10189
O         33.79515        59.00101         1.38584
H         34.52360        59.46870         1.86563
O         59.84975        58.74738         1.31117
H         60.65781        58.39160         1.73624
O         51.49907        47.56131        -2.18804
H         50.83776        46.89374        -2.47451
O         35.38192        45.79215        -0.83255
H         35.68094        45.86938        -1.76151
O         45.51868        67.01059        -0.68797
H         45.40025        67.91207        -1.05514
O         40.31682        37.19936         0.17276
H         40.61580        37.30911        -0.75292
O         49.08412        72.27649         3.11076
H         49.93000        72.74122         3.28496
O         32.62007        62.69655         1.46630
H         33.43782        62.99946         1.93485
O         51.95035        63.13720         3.07940
H         51.58408        62.26935         3.37140
O         35.28189        63.31177         1.84146
H         35.73291        62.56501         2.30938
O         32.83049        57.33770        -2.69784
H         32.71901        56.42010        -3.05602
O         59.68614        67.42459        -2.46306
H         58.81661        67.05177        -2.72167
O         61.30906        67.43551         0.83759
H         62.07106        67.92224         1.21604
O         57.07953        62.86402        -2.24446
H         56.87081        63.79628        -2.47161
O         37.40226        66.64098         1.55047
H         38.22009        66.28201         1.98423
O         53.86620        56.28733         1.93589
H         54.63034        55.76599         2.25853
O         50.38780        60.94535         3.07996
H         49.72370        60.25830         3.33614
O         44.11624        42.44658         1.82830
H         44.04886        41.60664         2.33170
O         39.84252        69.33818         2.70899
H         39.81431        68.35620         2.68691
O         40.25219        48.73605         1.56452
H         40.29004        47.83083         1.94097
O         37.00222        56.83434        -2.39922
H         36.38316        56.31914        -2.96543
O         54.73251        71.16516        -1.67823
H         54.73765        72.07990        -2.05369
O         40.69165        67.11241        -1.27261
H         39.88575        66.82249        -1.77179
O         47.55727        67.13269         3.32373
H         46.74395        66.61894         3.54695
O         37.41065        56.70225         1.23776
H         38.06095        57.10444         1.85073
O         45.44916        61.74392        -1.51816
H         45.68883        60.88024        -1.93173
O         48.58052        58.61096        -1.30999
H         47.87446        58.50967        -1.99058
O         62.33962        74.74695        -2.02933
H         62.51471        73.95054        -2.57137
O         48.73741        54.56862         2.31396
H         49.36352        55.21941         2.73404
O         41.57912        60.65649         2.17080
H         42.32596        60.06283         2.43069
O         62.28912        67.42249        -2.74196
H         61.35300        67.27518        -3.02199
O         35.44957        75.59470         0.30173
H         35.39431        75.40768         1.26093
O         42.61182        71.47349         3.09020
H         41.65580        71.59857         3.32411
O         32.76210        54.45760        -3.01051
H         33.66528        54.22519        -3.34138
H         23.18858        75.40483         1.14165
H         25.67371        75.40876         0.89617
H         28.11940        75.37982         0.67484
H         30.57058        75.36817         0.38920
H         33.02213        75.36828         0.08400
H         35.60070        74.60348        -1.48882
H         37.90460        75.30430         0.39188
H         40.26412        75.26372         1.04328
H         42.73693        75.25844         1.20722
H         45.19289        75.26673         1.04834
H         47.63616        75.28789         0.81155
H         50.08821        75.29222         0.59188
H         52.51691        75.27736         0.23579
H         54.92691        75.25515        -0.20816
H         57.37672        75.30524        -0.53228
H         59.84257        75.29463        -0.91205
H         62.53636        75.35229        -0.07100
H         64.93889        75.32113        -0.36976
H         67.41043        75.27930        -0.17152
H         22.17226        69.47599         0.44821
H         20.95578        71.76727         0.53727
H         21.04482        74.20488         0.92193
H         24.58202        65.23749         0.04033
H         23.39131        67.35675         0.38107
H         26.98938        60.96527        -0.23757
H         25.77630        63.12672        -0.12788
H         29.42619        56.65163        -0.54996
H         28.20533        58.81544        -0.59997
H         31.92381        52.36394        -1.16791
H         30.67471        54.49663        -0.92794
H         34.29483        48.09888        -0.42022
H         33.10620        50.24797        -0.73072
H         36.72787        43.78107         0.04792
H         35.96662        46.32735         1.05890
H         39.18760        39.49607         0.56096
H         37.95700        41.63300         0.22781
H         41.69405        35.27622         0.64500
H         40.82336        37.79941         2.06919
H         45.04437        31.86099         0.65641
H         42.92373        33.13448         0.67626
H         47.22785        32.98879         0.86415
H         48.53148        35.19529         0.98135
H         49.73453        37.30691         1.01628
H         50.95608        39.41068         0.87685
H         52.20923        41.52391         0.68351
H         53.47316        43.63159         0.40353
H         54.73690        45.70632         0.04528
H         56.02961        47.78314        -0.24744
H         57.35115        50.06943        -0.42848
H         58.57077        52.21339        -0.33702
H         59.77093        54.40934        -0.49271
H         60.96453        56.54313        -0.35298
H         62.20121        58.80691        -0.50794
H         63.33945        60.90126        -0.95502
H         64.54468        63.02853        -1.07641
H         65.77831        65.15872        -1.06527
H         67.04399        67.27231        -0.76711
H         68.29507        69.38576        -0.51989
H         69.54760        71.52081        -0.30122
H         69.54977        74.00260        -0.14759
