         404
 CSIRO Nanostructure Databank - Neutral Graphene Oxide Data Set
C          1.17150         2.16577         0.00773
C          1.18693         3.53793         0.30869
C          2.35412         1.46832        -0.16016
C          2.39244         4.23829         0.47521
C          1.28244         6.47364         0.47632
C          1.32065         7.87531         0.63727
C          2.39662         5.67854         0.69268
C          2.50025         8.57230         0.92522
C          1.40325        10.81510         0.80057
C          1.48659        12.24008         0.76278
C          2.52818        10.02767         1.02566
C          2.61182        12.91720         1.13118
C          1.48521        15.19234         1.39699
C          1.55262        16.52952         1.61348
C          2.69465        14.41573         0.92526
C          2.81699        17.24233         1.63405
C          2.85469        18.63145         1.35387
C          3.60424         2.12772         0.00667
C          3.62693         3.51554         0.36082
C          4.81951         1.42852        -0.18482
C          4.89273         4.14620         0.57248
C          3.64204         6.34743         1.12015
C          3.71744         7.82964         1.10011
C          4.92917         5.54838         1.06593
C          4.94392         8.48745         1.26169
C          3.78549        10.67836         1.30438
C          3.79117        12.15340         1.69144
C          4.95407         9.93471         1.36358
C          5.11688        12.84364         1.40969
C          3.97183        15.03203         1.44378
C          3.99464        16.41632         1.74563
C          5.16858        14.29361         1.46485
C          5.24081        16.96786         2.12316
C          3.98545        19.42855         1.12569
C          5.28170        19.06325         1.58874
C          6.05886         2.06755        -0.02697
C          6.07857         3.44205         0.38109
C          7.28650         1.37035        -0.26806
C          7.40078         4.07452         0.73630
C          6.20064         6.29633         0.92644
C          6.20322         7.75059         1.16489
C          7.34019         5.58670         0.65365
C          7.41070         8.42415         1.16846
C          6.23505        10.65437         1.56399
C          6.27357        12.11923         1.34212
C          7.52099         9.86933         1.43302
C          7.57069        12.80637         1.10434
C          6.43885        14.95640         1.59806
C          6.46134        16.34726         1.87119
C          7.66527        14.23674         1.43008
C          7.72112        17.14251         1.89991
C          6.54373        19.31869         1.06551
C          7.73177        18.56285         1.39767
C          8.52816         2.02431        -0.27761
C          8.59083         3.44060         0.02500
C          9.73417         1.34035        -0.59094
C          9.78868         4.10984        -0.13022
C          8.63400         6.28380         0.59118
C          8.59206         7.76941         0.56281
C          9.87307         5.54790         0.21044
C          9.88159         8.49654         0.39007
C          8.77562        10.57287         1.16830
C          8.86748        12.01721         1.07447
C         10.01575         9.80796         1.07595
C         10.16897        12.70901         1.26645
C          8.92067        14.86003         1.49253
C          9.00190        16.32916         1.73069
C         10.14344        14.11747         1.37522
C         10.23174        17.01435         1.28343
C          8.95083        19.12762         1.05454
C         10.20314        18.42386         1.05437
C         10.97166         2.00463        -0.67433
C         11.01308         3.44397        -0.51106
C         12.18407         1.30021        -0.89253
C         12.22929         4.13672        -0.65546
C         11.05952         6.29641        -0.30260
C         11.11661         7.78795        -0.09795
C         12.31487         5.57287        -0.52216
C         12.44088         8.39550         0.06073
C         11.34188        10.48981         1.12978
C         11.39455        11.97345         1.17722
C         12.56262         9.71133         0.71488
C         12.64902        12.61540         1.01259
C         11.42306        14.84569         1.47959
C         11.42906        16.29658         1.18030
C         12.72916        14.06747         1.25134
C         12.64600        16.95591         0.86835
C         11.40087        19.08375         0.75084
C         12.62710        18.37776         0.66864
C         13.41882         1.96361        -1.01770
C         13.44801         3.42362        -0.96727
C         14.62589         1.25159        -1.19166
C         14.60554         4.12242        -1.25693
C         13.46855         6.30813        -0.76738
C         13.56302         7.71052        -0.40755
C         14.61431         5.62360        -1.46643
C         14.84945         8.40174        -0.49443
C         13.85329        10.45822         0.52430
C         13.83692        11.93631         0.61283
C         14.95784         9.76828        -0.16606
C         15.03910        12.63006         0.33454
C         13.92509        14.79647         0.81204
C         13.89015        16.23753         0.74235
C         15.08055        14.06989         0.44013
C         15.07055        16.94198         0.45774
C         13.83062        19.05856         0.38034
C         15.05390        18.36420         0.28496
C         15.84984         1.91724        -1.43090
C         15.80328         3.37887        -1.66608
C         17.07665         1.25401        -1.46185
C         17.10711         4.13597        -1.80854
C         15.95840         6.28730        -1.23445
C         16.01280         7.68782        -0.93387
C         17.13282         5.58781        -1.49751
C         17.25948         8.37741        -1.01304
C         16.18912        10.47743        -0.28524
C         16.24554        11.91348        -0.01522
C         17.32769         9.76566        -0.70182
C         17.45511        12.61954        -0.15984
C         16.31148        14.75806         0.19040
C         16.39064        16.22346         0.54116
C         17.48214        14.05540        -0.11187
C         17.51973        16.93938        -0.14379
C         16.25597        19.05615        -0.01195
C         17.46961        18.36520        -0.26089
C         18.32906         1.94565        -1.54419
C         18.35954         3.37434        -1.67274
C         19.53904         1.24142        -1.38866
C         19.57983         4.06863        -1.67573
C         18.39725         6.26032        -1.53649
C         18.45333         7.66343        -1.36343
C         19.60309         5.51855        -1.75828
C         19.68920         8.36995        -1.60457
C         18.65042        10.40889        -0.62744
C         18.73355        11.87933        -0.27428
C         19.76493         9.75305        -1.32949
C         20.05611        12.64351        -0.44295
C         18.71272        14.78035        -0.43587
C         18.67380        16.23120        -0.50516
C         19.88251        14.10970        -0.77028
C         19.84929        16.95050        -0.88665
C         18.62998        19.07060        -0.64481
C         19.83337        18.38771        -0.91122
C         20.78596         1.91534        -1.35906
C         20.79994         3.33894        -1.54702
C         22.01033         1.23168        -1.15631
C         22.03900         4.03032        -1.57234
C         20.80503         6.21143        -2.02535
C         20.82962         7.62546        -2.06340
C         22.06069         5.42292        -2.09822
C         22.05882         8.34317        -2.45153
C         20.86641        10.57982        -1.81527
C         21.05045        11.97876        -1.38547
C         22.09742         9.83302        -2.37407
C         22.15742        12.68616        -1.80600
C         21.06304        14.81917        -1.18810
C         21.04967        16.25406        -1.19318
C         22.23018        14.12459        -1.59447
C         22.24423        16.97798        -1.45346
C         21.02988        19.09687        -1.17870
C         22.23718        18.41886        -1.40931
C         23.23743         1.93096        -1.08605
C         23.22540         3.35297        -1.30275
C         24.46853         1.27877        -0.81002
C         24.47502         4.10841        -1.10140
C         23.37361         6.14587        -2.18623
C         23.40243         7.62140        -2.44485
C         24.54570         5.56897        -1.46730
C         24.64458         8.38023        -2.19349
C         23.38594        10.50965        -2.33611
C         23.32549        11.99054        -2.42354
C         24.59611         9.80268        -2.30401
C         24.63850        12.74929        -2.48435
C         23.43872        14.85599        -1.85191
C         23.45371        16.28093        -1.72651
C         24.65689        14.19500        -2.16846
C         24.67380        17.00109        -1.90709
C         23.45775        19.12308        -1.56406
C         24.67170        18.45021        -1.77365
C         25.71664         1.97138        -0.76554
C         25.72737         3.37777        -0.96621
C         26.92270         1.29162        -0.41906
C         26.97952         4.11795        -1.08811
C         25.84295         6.28131        -1.55557
C         25.85412         7.69210        -1.84022
C         27.00398         5.60145        -1.19708
C         27.08608         8.38713        -1.67347
C         25.87531        10.53751        -2.42074
C         25.90043        12.00056        -2.33582
C         27.18280         9.80099        -2.07217
C         27.09637        12.67566        -2.17428
C         25.86270        14.90123        -2.32635
C         25.86983        16.31620        -2.19436
C         27.12565        14.12769        -2.48522
C         27.11516        17.09201        -2.42056
C         25.88814        19.16523        -1.80569
C         27.13041        18.52899        -2.04044
C         28.14755         1.97865        -0.20497
C         28.23515         3.38982        -0.66733
C         29.26870         1.36835         0.34132
C         29.40746         4.20443        -0.28485
C         28.23492         6.30885        -1.01231
C         28.24896         7.73057        -1.20046
C         29.41426         5.64391        -0.55929
C         29.44426         8.49056        -0.92678
C         28.33984        10.60500        -1.64324
C         28.32836        12.00745        -1.82750
C         29.46996         9.91118        -1.10704
C         29.49092        12.80001        -1.47596
C         28.45370        14.84593        -2.40987
C         28.43567        16.34787        -2.50771
C         29.59013        14.17097        -1.73086
C         29.72395        17.06887        -2.26281
C         28.32105        19.22891        -1.91104
C         29.64537        18.63017        -2.03758
C         30.46346         2.15964         0.79611
C         30.49912         3.54976         0.21371
C         31.79552         1.44048         0.73917
C         31.78110         4.27385         0.19263
C         30.54053         6.42191        -0.21033
C         30.58662         7.82835        -0.39500
C         31.70373         5.74411         0.38602
C         31.80238         8.57014        -0.11027
C         30.62650        10.64644        -0.71482
C         30.56147        12.11343        -0.73078
C         31.79527         9.99573        -0.27102
C         31.86686        12.89363        -0.46364
C         30.78518        14.93774        -1.40806
C         30.85833        16.35675        -1.66150
C         31.94034        14.28970        -0.92250
C         32.01396        17.09115        -1.32955
C         30.79883        19.25388        -1.42529
C         32.00038        18.55007        -1.28924
C         33.00464         2.09784         0.70875
C         33.05497         3.55363         0.40905
C         34.25959         1.46069         0.97119
C         34.28955         4.33183         0.67311
C         32.98357         6.48937         0.60454
C         32.99388         7.92263         0.28323
C         34.26763         5.75355         0.64066
C         34.20970         8.63993         0.49947
C         33.02189        10.73858        -0.04912
C         33.08366        12.12200        -0.25096
C         34.21033        10.03298         0.33445
C         34.42267        12.79677        -0.40248
C         33.17731        14.98592        -0.74825
C         33.19706        16.41039        -0.89757
C         34.35473        14.30209        -0.34274
C         34.38644        17.12820        -0.61310
C         33.19392        19.24703        -0.97960
C         34.39951        18.57093        -0.71053
C         35.46172         2.18173         1.03420
C         35.48104         3.60741         0.80450
C         36.65824         1.54275         1.52068
C         36.76400         4.31423         0.68255
C         35.45723         6.51143         0.71509
C         35.44042         7.92718         0.80863
C         36.75118         5.81557         0.58983
C         36.63735         8.63820         1.18229
C         35.33044        10.81153         0.89777
C         35.47036        12.22751         0.53168
C         36.50245        10.08309         1.50992
C         36.63660        12.93072         0.79334
C         35.53725        15.01377        -0.05178
C         35.56096        16.44064        -0.20859
C         36.71201        14.33888         0.44066
C         36.77054        17.16078         0.00900
C         35.60349        19.27155        -0.50341
C         36.79964        18.58990        -0.17935
C         37.83375         2.23083         1.74670
C         38.00650         3.59760         1.21445
C         38.93859         1.66598         2.47722
C         39.15228         4.40754         1.65534
C         38.02488         6.59838         0.85044
C         37.88387         8.01251         1.28489
C         39.26425         5.82171         1.22952
C         39.07860         8.75580         1.67194
C         37.71344        10.89028         1.99398
C         37.78548        12.31193         1.43842
C         39.03325        10.16307         1.85352
C         38.95362        13.02277         1.62371
C         37.89559        15.06151         0.67058
C         37.94723        16.47465         0.40506
C         39.06348        14.40335         1.19725
C         39.16673        17.18914         0.57174
C         38.01667        19.28239        -0.02350
C         39.20154        18.60323         0.32930
C         40.03257         2.41845         2.79419
C         40.14164         3.81422         2.42380
C         41.23799         4.60445         2.94687
C         40.44129         6.61141         1.75344
C         40.32977         8.09735         1.81421
C         41.35511         5.92957         2.68819
C         41.49082         8.84421         2.03508
C         40.20587        10.89891         2.09613
C         40.09509        12.38925         2.40603
C         41.43853        10.23053         2.15033
C         41.39427        13.12688         2.23470
C         40.27969        15.09756         1.30099
C         40.35694        16.50551         0.97319
C         41.45687        14.38463         1.75763
C         41.55140        17.24324         1.08518
C         40.43301        19.30174         0.46262
C         41.58379        18.62141         0.82522
O         40.43384         6.08562         0.38348
O         37.55655         6.34940        -0.51088
O          5.25979        18.22513         2.72486
O         30.02505        17.98907        -3.31481
O         37.70928         3.69050        -0.22421
O         10.78064         9.83523         2.34189
O         30.84267        12.70954         0.57971
O          8.17616        12.47837        -0.20036
O         32.58404         3.86111        -0.97773
O          6.95501        10.26012         2.77941
O          8.56214        16.82455         3.04897
O          9.59161         5.80766         1.64089
O         21.11480        10.44034        -3.26322
O         35.36505        10.45390         2.35902
O         27.97710        14.28907        -3.67478
O         24.26243         5.20210        -0.07250
O         22.71557         7.92610        -3.69180
O          8.88462         8.49704        -0.68748
O         27.90749         3.51200        -2.08593
O         13.55512         9.76482         1.79737
O         18.90940        10.86025         0.77959
O         16.30695         3.79089        -3.00567
O         26.76269        10.01773        -3.45728
O         10.83512         7.21358        -1.41921
O         27.76043        16.81354        -3.70390
O          4.24467         5.75357         2.33729
O         12.27006        14.46282         2.60109
O         22.86983         5.41947        -3.34145
O         23.84373        12.49284        -3.69802
O         32.06323         6.17137         1.74147
O         34.87910        12.46210        -1.77103
H         35.70425        12.96628        -1.93741
O         16.74590        16.24947         1.98172
H         16.01614        15.81024         2.46992
O         39.77505        12.50513         3.82279
H         38.92561        12.01162         3.96562
O          7.63803         3.78654         2.15374
H          8.41709         4.33070         2.42093
O         37.54301        11.02319         3.44578
H         36.56962        11.11369         3.59603
O          2.72795        14.59683        -0.53852
H          2.73026        15.56210        -0.71277
O         14.36367         5.79983        -2.90658
H         15.01196         5.21360        -3.37017
O         20.71285        12.65059         0.86328
H         20.35376        11.87609         1.35946
O         30.24771         2.37703         2.25519
H         29.35090         2.75830         2.37025
O          3.63740        12.18147         3.15167
H          4.35613        11.63608         3.53823
H          0.20747         1.65146        -0.10878
H          0.22771         4.06067         0.42296
H          2.34129         0.40007        -0.41910
H          0.33156         6.02053         0.16369
H          0.38379         8.42727         0.48444
H          0.43870        10.35354         0.55090
H          0.61348        12.79352         0.38662
H          0.50764        14.68804         1.40590
H          0.63111        17.10329         1.79900
H          1.88293        19.08100         1.08909
H          4.78810         0.36664        -0.47089
H          3.86087        20.35495         0.54486
H          7.24126         0.30084        -0.52287
H          6.65455        20.11539         0.31355
H          9.69837         0.25304        -0.75705
H          8.96517        20.17510         0.71651
H         12.15605         0.20305        -0.97104
H         11.39614        20.17028         0.58052
H         14.61587         0.15301        -1.13215
H         13.81316        20.14804         0.23089
H         17.09481         0.16324        -1.31797
H         16.23086        20.15031        -0.11940
H         19.51350         0.14931        -1.26095
H         18.60280        20.16842        -0.70355
H         22.00211         0.13976        -1.02471
H         21.01780        20.19659        -1.16647
H         24.46314         0.19401        -0.62790
H         23.45639        20.22038        -1.48756
H         26.86948         0.21919        -0.18092
H         25.87347        20.25010        -1.62380
H         29.20738         0.31243         0.64737
H         28.27765        20.26404        -1.53802
H         31.78376         0.35675         0.93513
H         30.74302        20.30763        -1.11537
H         34.27136         0.38395         1.19770
H         33.18328        20.34680        -0.98382
H         36.58154         0.49501         1.84901
H         35.61557        20.36729        -0.59943
H         38.87331         0.61682         2.80016
H         38.04431        20.37041        -0.18387
H         40.85581         1.97424         3.37211
H         41.94328         4.11355         3.63342
H         42.12411         6.52317         3.20332
H         42.46018         8.33323         2.11254
H         42.37256        10.77926         2.32360
H         42.31118        12.66620         2.62767
H         42.43200        14.88951         1.72443
H         42.48479        16.75106         1.38746
H         40.46027        20.38419         0.27299
H         42.53409        19.16437         0.92340
