         671
 CSIRO Nanostructure Databank - Neutral Graphene Oxide Data Set
C          6.07322        31.65524         0.81252
C          6.08290        33.01466         0.86028
C          8.39479        27.40231        -0.08846
C          8.40401        28.77709        -0.00774
C          7.24804        29.53260         0.39792
C          8.41325        31.66224        -0.03424
C          7.24236        30.91559         0.39878
C          8.41164        33.05632        -0.00453
C          7.25894        33.77067         0.49116
C          8.49445        35.91464         0.44539
C          7.28786        35.14984         0.65192
C          8.51363        37.31505         0.69204
C         10.86141        23.09406        -0.17491
C         10.83068        24.52830        -0.27977
C          9.62461        25.21082        -0.33343
C         10.85197        27.39858        -0.54859
C          9.54551        26.65982        -0.71404
C         10.85919        28.78328        -0.49540
C          9.61461        29.52211        -0.33775
C         10.84074        31.62407        -0.72814
C          9.59029        30.90551        -0.40073
C         10.85725        33.12861        -0.75921
C          9.52438        33.88603        -0.62146
C         10.87938        36.04019        -0.34381
C          9.64971        35.25274         0.00405
C         10.92997        37.38121         0.33355
C          9.73336        38.05670         0.65630
C         10.97755        40.20330         0.85875
C          9.76639        39.45750         0.93820
C         10.95649        41.64848         0.87932
C         13.30173        18.82134        -0.06144
C         13.29271        20.21980        -0.26325
C         12.06717        20.94194        -0.23562
C         13.34806        23.05063        -0.22659
C         12.04236        22.34844        -0.24492
C         13.35336        24.55774        -0.28802
C         12.07303        25.26597        -0.40364
C         13.34158        27.36284        -0.60877
C         12.08765        26.65935        -0.54376
C         13.36551        28.77976        -0.53816
C         12.11504        29.51171        -0.46449
C         13.33842        31.66132        -0.35638
C         12.10421        30.89640        -0.50711
C         13.33930        33.12972        -0.51810
C         12.15291        33.81775        -0.52811
C         13.42298        35.99311        -0.47753
C         12.16147        35.24709        -0.02792
C         13.47215        37.37328         0.14226
C         12.23185        37.99436         0.75741
C         13.46161        40.20782         0.80847
C         12.19464        39.50523         0.69822
C         13.41660        41.74130         0.74073
C         12.10182        42.41951         0.71425
C         13.30091        44.55901         0.37714
C         12.11665        43.84629         0.61094
C         13.35951        45.99076         0.41417
C         15.82462        14.66356         0.87315
C         15.74680        16.00023         0.54922
C         14.55032        16.70370         0.28150
C         15.73693        18.81868        -0.22596
C         14.51352        18.10437         0.00726
C         15.74439        20.16549        -0.58471
C         14.53470        20.90553        -0.53338
C         15.74464        23.03710        -0.95216
C         14.57028        22.33347        -0.64262
C         15.76762        24.49531        -0.98691
C         14.58681        25.23305        -0.71291
C         15.78693        27.34605        -1.03593
C         14.57054        26.64486        -0.78855
C         15.79795        28.76903        -0.98271
C         14.59898        29.46145        -0.65461
C         15.88125        31.64923        -0.77679
C         14.66690        30.90224        -0.40988
C         15.87963        33.06484        -0.68017
C         14.63902        33.81435        -0.40975
C         16.00043        35.87529        -0.06140
C         14.67889        35.17157        -0.23967
C         15.90148        37.37075        -0.27092
C         14.67010        38.03184         0.13639
C         15.86403        40.24053        -0.15725
C         14.73446        39.47451         0.46031
C         15.55955        41.64395        -0.62290
C         14.56638        42.45203         0.16411
C         15.68582        44.58025        -0.39603
C         14.51015        43.83051         0.00970
C         15.72924        45.94794        -0.20278
C         14.54530        46.68382         0.18996
C         15.80545        48.83064         0.30645
C         14.62328        48.13244         0.31548
C         15.86495        50.27912         0.41635
C         18.26621        10.46807         1.68522
C         18.24203        11.91004         1.70051
C         17.06578        12.63547         1.66398
C         18.30497        14.75318         1.07651
C         17.01826        14.14584         1.63342
C         18.30857        15.99579         0.54784
C         17.04041        16.82901         0.74845
C         18.29289        18.80136        -0.29376
C         17.00248        18.06515        -0.13683
C         18.27899        20.23899        -0.59123
C         16.99707        20.80596        -1.15442
C         18.16351        22.98546        -1.36987
C         16.99072        22.31849        -1.14099
C         18.10839        24.40399        -1.90553
C         16.94643        25.19358        -1.35201
C         18.16952        27.35550        -1.63593
C         16.98086        26.61663        -1.34355
C         18.18204        28.76181        -1.57487
C         17.00559        29.49013        -1.23249
C         18.21398        31.64907        -1.55623
C         17.02839        30.93040        -1.18670
C         18.20841        33.07395        -1.50448
C         17.04586        33.77734        -1.04066
C         18.17752        35.94550        -1.29084
C         17.09570        35.22018        -0.87868
C         18.33247        37.38168        -0.84307
C         17.01884        38.08586        -0.65132
C         18.05146        40.22830        -1.36411
C         16.99075        39.50934        -0.80234
C         17.79941        41.63905        -1.58870
C         16.80963        42.37394        -0.98872
C         18.27105        44.49711        -0.62910
C         16.94057        43.80351        -0.63248
C         18.27658        45.99186        -0.68551
C         16.98912        46.71348        -0.42531
C         18.31626        48.85504        -0.16153
C         17.10253        48.05375         0.28392
C         18.32650        50.30837         0.13569
C         17.02816        50.99463         0.39613
C         18.29989        53.14421         0.76324
C         17.05360        52.49883         0.18261
C         18.36545        54.51264         0.98787
C         20.81851         6.22438         1.96509
C         20.78334         7.63634         1.92663
C         19.54240         8.34816         1.75527
C         20.71390        10.49628         2.23219
C         19.46137         9.74642         1.82837
C         20.70602        11.93695         1.80838
C         19.52500        12.60521         1.67456
C         20.80205        14.59088         0.85705
C         19.55833        14.11472         1.60673
C         20.82729        16.09225         0.74433
C         19.60104        16.66889         0.07167
C         20.70647        18.91489         0.17810
C         19.55578        18.18015         0.13221
C         20.68729        20.35157        -0.09889
C         19.43893        20.94926        -0.57880
C         20.46466        23.24826        -0.53293
C         19.51203        22.28967        -1.27725
C         20.68947        24.52792        -1.33615
C         19.44618        25.15743        -1.88288
C         20.66955        27.36940        -1.81467
C         19.39229        26.64646        -2.18669
C         20.58925        28.80398        -2.02599
C         19.39954        29.49556        -1.90347
C         20.53865        31.68132        -2.35857
C         19.39111        30.95468        -1.97480
C         20.53212        33.10459        -2.31566
C         19.37438        33.78867        -1.90339
C         20.58276        36.06807        -2.15723
C         19.31079        35.27003        -1.95614
C         20.61034        37.51238        -1.81547
C         19.41619        38.20183        -1.53235
C         20.63764        40.34913        -1.68970
C         19.37514        39.62337        -1.57795
C         20.80157        41.76721        -1.46129
C         19.73041        42.69232        -1.59206
C         20.73048        44.34661        -0.04105
C         19.59321        43.85861        -0.89550
C         20.80284        45.85506        -0.07389
C         19.61986        46.64826        -0.46452
C         20.81429        48.72103         0.46232
C         19.63555        48.12981        -0.20021
C         20.76495        50.02527         0.97165
C         19.64801        50.99816         0.48354
C         20.26807        52.93895         2.07560
C         19.36592        52.31366         1.21890
C         20.52766        54.33392         2.16514
C         19.49309        55.17311         1.58179
C         20.37333        57.37903         2.28219
C         19.54094        56.59321         1.47346
C         20.84401        58.68873         2.11692
C         23.31594         3.43749         2.25626
C         22.09611         4.10034         2.11818
C         23.26376         6.25052         2.24349
C         22.04171         5.52115         2.10430
C         23.23845         7.67706         2.23295
C         22.00885         8.35543         2.04389
C         23.19658        10.59015         2.27064
C         21.99606         9.82975         1.74596
C         23.20009        11.96577         2.23488
C         21.97729        12.65978         1.83418
C         23.12758        14.85344         1.98933
C         22.01229        13.98448         1.50880
C         23.19791        16.20774         1.33233
C         21.97564        16.83049         0.86513
C         23.28945        19.05895         0.43983
C         22.03192        18.17129         0.12503
C         22.99954        20.54348         0.84160
C         21.81462        21.12001         0.08612
C         23.04886        23.37481        -0.03258
C         21.75965        22.59608        -0.03942
C         23.06445        24.75179        -0.61894
C         21.91661        25.34597        -1.08887
C         23.07814        27.63286        -1.22132
C         21.85165        26.75663        -1.44600
C         23.09487        28.78542        -2.20709
C         21.81114        29.48037        -2.48746
C         23.03485        31.66594        -2.20926
C         21.79421        30.96228        -2.85570
C         23.09701        33.12603        -2.64646
C         21.77372        33.88117        -2.63172
C         23.05577        35.96102        -2.09458
C         21.84904        35.32362        -2.29863
C         23.07240        37.40249        -1.71805
C         21.83660        38.21218        -1.86974
C         23.16383        40.37423        -1.94900
C         21.85997        39.60677        -1.76408
C         23.21514        41.64803        -1.14759
C         22.03739        42.33969        -0.96745
C         23.23603        44.35120        -0.17768
C         22.03980        43.68751        -0.41301
C         23.24743        45.75662         0.20557
C         21.99349        46.50378         0.20290
C         23.24430        48.53859         0.80846
C         22.01671        47.93086         0.48267
C         23.24940        49.89232         1.23166
C         22.01034        50.54675         1.46375
C         23.23328        52.56432         2.19877
C         22.10649        51.75200         2.19326
C         23.13113        53.99595         2.54313
C         21.86076        54.75760         2.56717
C         23.16929        56.87749         2.93276
C         21.99867        56.11082         2.95519
C         23.17624        58.29457         3.05646
C         22.05331        59.15168         2.72020
C         23.42980        61.12878         3.22758
C         22.24216        60.56137         2.78277
C         24.51119         4.14476         2.38772
C         25.70931         6.31455         2.51401
C         24.51065         5.56667         2.38972
C         25.69768         7.72485         2.56421
C         24.45131         8.39907         2.46119
C         25.70876        10.62308         2.78441
C         24.38734         9.84498         2.68530
C         25.68570        12.05938         2.46555
C         24.44059        12.73661         2.32229
C         25.65376        14.84645         1.94565
C         24.44000        14.12293         2.07045
C         25.62915        16.26390         1.67979
C         24.38028        16.91714         1.38532
C         25.58546        19.17239         1.39423
C         24.25071        18.42203         1.48601
C         25.57171        20.63895         1.05260
C         24.30001        21.32909         0.65560
C         25.59410        23.29234        -0.09787
C         24.32472        22.62398         0.20126
C         25.61167        24.74913        -0.43666
C         24.32205        25.57520        -0.39607
C         25.51198        27.36456        -1.79203
C         24.38120        26.84800        -1.24672
C         25.60586        28.71755        -2.50234
C         24.35883        29.55030        -2.29681
C         25.62431        31.62802        -2.48111
C         24.33731        30.89658        -2.38095
C         25.60592        33.13390        -2.40461
C         24.32882        33.88033        -2.34384
C         25.57418        35.91785        -1.63436
C         24.31272        35.23640        -2.13085
C         25.63252        37.40614        -1.83304
C         24.39307        38.13708        -1.61002
C         25.66739        40.23477        -1.68192
C         24.43165        39.58910        -1.72629
C         25.68778        41.74516        -1.59325
C         24.53424        42.18605        -0.66215
C         25.68926        44.35478        -0.29477
C         24.50047        43.68100        -0.41797
C         25.72362        45.70960         0.24207
C         24.45846        46.40377         0.43620
C         25.66971        48.42058         1.21257
C         24.48745        47.80305         0.81175
C         25.72537        49.84746         1.45016
C         24.47331        50.59635         1.45457
C         25.68853        52.83307         1.70393
C         24.45067        51.96290         1.76814
C         25.60230        53.81896         2.89487
C         24.33049        54.65100         2.75957
C         25.65260        56.75580         3.29462
C         24.44976        56.14603         2.61542
C         25.59685        58.12035         3.62738
C         24.44005        58.91617         3.39949
C         24.52403        60.31811         3.53873
C         26.93056         8.48056         2.61535
C         28.16792        10.63571         2.49742
C         26.95920         9.86144         2.61355
C         28.15128        12.00788         2.41451
C         26.90554        12.74809         2.32896
C         28.12232        14.86875         1.87374
C         26.89894        14.15697         2.07365
C         28.09025        16.25750         1.55310
C         26.84713        16.97624         1.53326
C         28.01286        19.00277         0.77977
C         26.84992        18.38638         1.22613
C         27.93764        20.35095         0.08270
C         26.91061        21.31206         0.72142
C         28.00526        23.06759        -0.72527
C         26.75895        22.57153        -0.10080
C         28.04787        24.45833        -1.27236
C         26.83775        25.32545        -1.06311
C         28.07945        27.31020        -1.97809
C         26.75340        26.51725        -2.00073
C         28.02225        28.78205        -1.79974
C         26.86122        29.46968        -2.05050
C         28.02834        31.64537        -1.82350
C         26.85444        30.91884        -2.05960
C         28.05191        33.09304        -1.91471
C         26.85447        33.81896        -2.04696
C         28.05766        35.93683        -2.04221
C         26.85560        35.22527        -1.99496
C         28.02063        37.37208        -2.52512
C         26.83192        38.09848        -1.93867
C         28.22354        40.08346        -1.33194
C         26.87976        39.50062        -1.71500
C         28.18113        41.58925        -1.10558
C         27.02271        42.30129        -1.13401
C         28.22422        44.41096        -0.34468
C         26.96484        43.74264        -0.74951
C         28.18482        45.52081         0.67937
C         26.90508        46.30890         0.62763
C         28.18936        48.28364         1.64441
C         26.85670        47.53144         1.51256
C         28.18599        49.78246         1.87693
C         26.90782        50.51199         1.72759
C         28.11777        52.47617         2.63683
C         27.03504        52.02484         1.60361
C         28.07428        53.96045         2.88205
C         26.88272        54.62051         3.03155
C         26.82800        56.01112         3.37221
C         29.45947        12.76089         2.45213
C         30.55210        14.85083         1.66559
C         29.38151        14.18609         1.95633
C         30.54929        16.22806         1.27652
C         29.30038        16.93629         1.23082
C         30.49002        18.96279         0.51233
C         29.26823        18.29769         0.81081
C         30.49706        20.35863         0.16773
C         29.27603        21.05750        -0.01027
C         30.50073        23.12447        -0.52712
C         29.28942        22.40783        -0.40041
C         30.51231        24.50463        -0.96394
C         29.35495        25.15343        -1.32034
C         30.58474        27.36668        -1.32514
C         29.36500        26.59196        -1.67708
C         30.53810        28.77373        -1.28662
C         29.20383        29.48532        -1.16629
C         30.41416        31.67377        -1.26309
C         29.25233        30.96282        -1.47937
C         30.44310        33.11938        -1.33362
C         29.25364        33.82401        -1.69884
C         30.48671        35.98926        -1.65621
C         29.27074        35.24290        -1.84128
C         30.52034        37.41570        -1.78884
C         29.41293        38.10483        -2.53668
C         30.70791        40.30486        -1.94313
C         29.34914        39.65454        -2.32700
C         30.60162        41.82408        -1.87146
C         29.53942        42.19819        -0.76644
C         30.64674        44.42705        -0.39101
C         29.50302        43.68874        -0.50634
C         30.63715        45.77306         0.16210
C         29.43901        46.36858         0.61136
C         30.64296        48.43753         1.14120
C         29.43508        47.67437         1.12728
C         30.61639        49.84728         1.49416
C         29.47016        50.52300         1.77412
C         29.50967        51.98782         2.18691
C         31.74283        16.89368         0.97367
C         32.95743        18.96490         0.44131
C         31.74128        18.26873         0.62718
C         32.98188        20.36053         0.20549
C         31.72956        21.05316         0.04035
C         32.94224        23.18524        -0.09623
C         31.73885        22.45890        -0.21375
C         32.83374        24.69021        -0.03513
C         31.86442        25.17933        -1.12103
C         32.97885        27.41247        -0.84378
C         31.79482        26.68945        -1.11582
C         32.94731        28.81891        -0.81652
C         31.72986        29.48747        -1.06656
C         32.93066        31.73826        -0.79722
C         31.70899        30.96392        -1.15110
C         32.76171        33.17571        -0.36283
C         31.59196        33.85125        -1.01879
C         32.87695        35.94313        -1.18004
C         31.63049        35.25913        -1.22452
C         32.87872        37.26397        -1.63427
C         31.75487        38.11604        -1.68505
C         33.18430        40.34634        -1.37400
C         31.87487        39.60075        -1.69085
C         33.17738        41.74281        -1.44093
C         31.93708        42.52042        -1.56747
C         33.17810        44.44927        -0.30760
C         31.93325        43.87077        -0.87245
C         33.10855        45.75391         0.24254
C         31.88076        46.45294         0.38400
C         31.84921        47.80148         0.82522
C         34.19032        21.08546         0.16357
C         35.37577        23.24869         0.28656
C         34.19311        22.51276         0.11202
C         35.32263        24.71920         0.57328
C         34.16541        25.40332        -0.11111
C         35.52927        27.43361        -0.65577
C         34.21583        26.70211        -0.49752
C         35.45375        28.90268        -0.30647
C         34.10420        29.54536        -0.15801
C         35.31238        31.73216        -0.12269
C         34.16051        31.03128        -0.36929
C         35.25596        33.21763         0.15367
C         34.05902        33.92781        -0.45117
C         35.24441        36.04612        -0.23305
C         34.09192        35.27218        -0.73517
C         35.24313        37.48585        -0.05897
C         34.65473        38.35353        -0.95413
C         35.62767        40.55371        -0.58921
C         34.45269        39.76719        -0.91645
C         35.65190        41.86613        -0.95666
C         34.44717        42.58178        -1.45641
C         34.37106        43.82682        -0.60323
C         36.63038        25.44310         0.41414
C         37.91077        27.52397         0.12811
C         36.70143        26.74783         0.01571
C         37.89024        28.91460         0.04925
C         36.61270        29.62250        -0.08490
C         37.79375        31.81034         0.16005
C         36.59045        31.07178         0.04355
C         37.82736        33.25426         0.10294
C         36.53465        33.93847        -0.28042
C         38.32019        36.35803         0.25704
C         36.33355        35.33819         0.21829
C         38.24753        37.78007        -0.06986
C         37.16672        38.56185         0.23073
C         36.99486        40.02868        -0.08607
C         39.07373        29.69176         0.22284
C         40.26791        31.83835         0.31414
C         39.04604        31.08486         0.24917
C         40.26461        33.20120         0.21229
C         39.04328        33.95332         0.08156
C         39.19710        35.39886        -0.16553
O         17.52081        46.59758        -1.77911
O         10.85292        32.35959        -2.02706
O         20.84279        56.72955         3.44743
O         34.08997        37.76786        -2.09200
O         17.74399        43.97081         0.64463
O         22.07805        17.78249        -1.25194
O         18.23489        49.79575        -1.26460
O         28.27866        48.82041         3.01045
O         27.64989        44.69649        -1.66271
O         22.46455        28.60531        -3.50618
O         15.85811        39.93804         1.26900
O         13.52829        23.83621         1.00363
O         25.62973        20.19254         2.46311
O         29.96213        37.92346        -3.84449
O         27.86446        23.34103        -2.18541
O         37.25626        35.90246         1.07518
O         20.39815        24.48087        -2.77392
O         28.95339        26.87366        -3.08743
O         26.61857        25.53068         0.36016
O         19.94296        47.60929        -1.53150
O         23.63286        37.64495        -0.36972
O         17.03191        17.19107         2.09416
O         13.63345        41.03331         2.01283
O         18.68164        42.31242        -2.43184
O         17.67868        17.98479        -1.42561
O         25.75451        32.42269        -3.70193
O         14.07922        31.30273         0.87383
O         32.06282        43.76720        -2.33439
O         21.00528        52.13263         2.94464
O         32.64260        31.47933        -2.20554
O         24.94959        10.26058         3.97799
O         19.64769        35.82161        -3.27724
O         22.44074        33.49824        -3.87549
O         22.19920        23.28521         1.20105
O         36.06967        38.02257         0.95009
O          9.25994        26.65823        -2.17466
H          9.19035        27.59654        -2.45426
O         20.45061        43.95786         1.34921
H         21.11103        44.40262         1.92111
O         16.93097        14.65872         3.00870
H         16.91879        15.66640         2.90405
O         25.52598        35.75146        -0.16585
H         24.77189        36.31046         0.15310
O         25.45003        53.00949         4.10116
H         25.33095        53.61913         4.85942
O         20.76581        10.46908         3.68505
H         20.07126        11.06990         4.02739
O         22.73452        15.14982         3.38390
H         21.75422        15.25833         3.39943
O         34.66277        42.97964        -2.84755
H         33.84392        43.46133        -3.11940
O         27.86018        51.79514         3.88592
H         26.96473        52.07522         4.20430
O          9.08158        34.16748        -2.00793
H          9.38753        33.39287        -2.54363
O         21.99473         9.93858         0.29121
H         22.81592         9.53003        -0.05267
O         16.97912        52.72373        -1.23528
H         17.68544        52.19350        -1.66195
O         22.61352        20.67887         2.23257
H         22.41079        21.63458         2.36637
O         35.15562        33.34041         1.60033
H         34.22718        33.09193         1.83333
O         28.92454        29.41939         0.28860
H         28.15095        29.99546         0.46806
O         10.79268        36.28375        -1.80017
H         10.14407        35.62293        -2.16834
O         23.17069        40.75855        -3.36729
H         23.90690        41.41227        -3.48558
O         19.72188        23.65360         0.64395
H         20.38353        23.85785         1.34684
O         17.80366        24.23088        -3.32573
H         18.61778        23.85653        -3.73341
O         12.34831        37.72903         2.21484
H         13.02236        38.34511         2.57710
O         36.52990        34.01536        -1.73448
H         36.50702        33.10025        -2.08640
O         35.81481        27.39690        -2.09585
H         36.69215        27.81425        -2.23080
O         38.01346        40.44580        -1.00118
H         37.70970        40.27398        -1.91609
O         32.41705        24.74246        -2.38801
H         31.87687        25.12789        -3.10932
O         13.42207        36.17352        -1.91965
H         12.48843        36.35822        -2.20170
O         16.39871        35.70763         1.33926
H         17.28844        36.12645         1.42662
O         21.83845        31.05948        -4.27923
H         22.29824        30.25675        -4.61628
O         20.03012        22.00434        -2.59311
H         19.42954        21.34959        -3.01027
O         27.58698        52.22642         0.27835
H         26.95455        52.81902        -0.20190
O         24.05143        19.15894        -0.77476
H         23.52046        18.63634        -1.44754
O         32.25119        24.99661         1.25983
H         32.96106        24.83591         1.92704
O         12.17596        35.12845         1.41299
H         13.05241        34.78664         1.69156
O         19.28304        26.77520        -3.63220
H         19.94098        26.15562        -4.01948
O         26.59357        46.96296         2.85273
H         26.94395        47.63564         3.49055
O         34.98769        24.82500         2.03138
H         35.16948        25.75216         2.29955
O         19.79285        16.36523        -1.35084
H         20.64221        16.86489        -1.58349
O         23.73185        18.54268         2.82115
H         24.00065        19.42404         3.17139
O         20.75591        14.04642        -0.48806
H         20.36224        14.74362        -1.08115
O         27.47128        20.09713        -1.26757
H         28.10302        19.49347        -1.71016
O         30.16443        42.37706        -3.11213
H         29.61995        41.70000        -3.58996
O         24.19200        26.05243         0.98459
H         25.11122        26.18888         1.31780
O         24.83227        41.55783         0.62636
H         24.08063        41.73607         1.23021
O         22.95902        28.27158         0.08360
H         23.21647        27.58255         0.75151
O         28.56886        39.44458        -0.07164
H         27.85963        39.64021         0.57603
O         28.19394        44.85632         1.98585
H         27.74668        45.47278         2.62119
O         27.62528        37.25176        -3.92017
H         28.49263        37.32934        -4.41952
O         20.20574        51.46587        -0.78063
H         19.94424        50.80557        -1.46653
O         30.04893        41.60199         0.45427
H         29.45277        41.84738         1.19251
O         25.41234        42.31721        -2.89915
H         26.22387        42.24982        -3.44620
O         30.04020        52.80871         1.14656
H         29.38273        52.78265         0.41070
O         17.00611        20.42952        -2.57485
H         17.15314        19.44951        -2.58942
O         18.85823        37.23415         0.54407
H         18.90982        38.13383         0.93545
O         30.48984        12.03783         1.76716
H         30.26229        12.00950         0.81549
O         17.42554        47.73083         1.67513
H         16.68133        47.21383         2.05176
O         28.93615        40.14561        -3.61851
H         29.33494        39.45877        -4.24030
O         27.50684        21.78916         1.95280
H         27.04770        21.31985         2.69157
O         26.60167        25.95682        -3.33221
H         27.51498        25.86629        -3.70516
O         14.84063        41.40240        -1.89984
H         14.79991        42.25011        -2.39281
O         22.79162        31.72139        -0.77293
H         22.82963        30.80892        -0.40948
O         25.70241        28.47567        -3.92413
H         26.01279        27.54674        -4.06028
O         32.44393        33.09150         1.08603
H         32.11314        33.97276         1.36396
O         25.57717        53.62569         0.49382
H         25.18971        54.51301         0.69867
O         33.79316        29.39458         1.29309
H         34.44539        29.93621         1.78854
O         19.68558        14.59009         2.98098
H         18.76693        14.60499         3.35973
O         24.68934        56.32787         1.15738
H         24.84635        57.28538         1.00543
H          5.17596        31.09207         1.10789
H          5.19422        33.56698         1.19907
H          7.47307        26.84746         0.14374
H          6.34277        28.98575         0.70143
H          6.39011        35.67006         1.01796
H          7.58272        37.82261         0.98364
H          9.90026        22.56081        -0.12246
H          8.68135        24.64821        -0.26085
H          8.82165        39.98521         1.13401
H          9.97919        42.14738         0.96575
H         12.34837        18.29504         0.09353
H         11.12211        20.38524        -0.14973
H         11.17220        44.39727         0.73747
H         12.45149        46.54838         0.68944
H         15.03354        13.96401         0.55304
H         13.59422        16.20486         0.51066
H         13.67561        48.68256         0.42726
H         14.90591        50.81809         0.47798
H         17.32136         9.92510         1.52187
H         16.10596        12.09388         1.67167
H         16.14585        52.97431         0.63490
H         17.52435        55.13991         0.65720
H         19.88080         5.65702         1.87016
H         18.62873         7.76111         1.57058
H         18.92676        57.07561         0.69850
H         20.29686        59.38379         1.46166
H         23.33557         2.33850         2.26190
H         21.16464         3.52489         2.01896
H         23.51707        62.22097         3.31022
H         21.40227        61.21263         2.50117
H         25.46333         3.60569         2.49410
H         26.66785         5.77994         2.59383
H         26.49838        58.60709         4.02979
H         25.47533        60.76958         3.85421
H         27.87699         7.92172         2.56072
H         29.13598        10.11235         2.49563
H         29.02156        54.51242         2.98472
H         27.76296        56.51011         3.67158
H         29.78096        12.80544         3.53255
H         31.51041        14.31544         1.73256
H         31.57409        50.38948         1.48792
H         30.20580        52.08005         3.06140
H         32.69922        16.35417         1.03621
H         33.90757        18.42021         0.54790
H         34.04584        46.26709         0.50544
H         32.79492        48.35462         0.92419
H         35.14373        20.55290         0.29493
H         36.32785        22.71524         0.42675
H         36.58738        42.43850        -0.86938
H         35.31799        44.28838        -0.28644
H         37.53182        24.94964         0.81308
H         38.84465        27.01404         0.41051
H         39.07066        38.23194        -0.64242
H         37.19584        40.57381         0.88063
H         40.03891        29.17146         0.31664
H         41.21804        31.29134         0.40184
H         41.21691        33.75112         0.22145
H         40.10500        35.70671        -0.70673
