         720
 CSIRO Nanostructure Databank - Neutral Graphene Oxide Data Set
C         22.84265        27.35779        -0.01595
C         22.81008        28.73817         0.16942
C         22.80673        31.74000         0.28116
C         22.84075        33.15425         0.29339
C         22.94141        36.08813         0.66997
C         23.00242        37.36805         1.10955
C         23.18528        40.34432         1.71790
C         23.19347        41.66534         1.48375
C         23.46263        44.41147         2.52267
C         23.56948        45.71618         3.04886
C         25.19123        24.60129        -0.89830
C         24.07217        25.24811        -0.52000
C         25.26737        27.39934        -0.28124
C         24.05320        26.68135        -0.27280
C         25.25895        28.82820        -0.03682
C         23.98433        29.51430         0.12444
C         25.23323        31.64265        -0.06590
C         23.95590        30.95372         0.19587
C         25.24023        33.14955        -0.19222
C         24.01600        33.89462         0.13356
C         25.38775        35.96338         0.38524
C         24.12983        35.31100         0.38954
C         25.49957        37.35210         0.78507
C         24.30241        38.01028         1.34865
C         25.67954        40.18446         1.38093
C         24.41029        39.50785         1.68462
C         25.69437        41.64759         1.73820
C         24.46413        42.43364         1.21848
C         25.78821        44.58060         1.62896
C         24.51401        43.80797         1.85937
C         25.93983        45.78514         2.50389
C         24.82059        46.39476         3.06703
C         26.13310        48.42775         3.50769
C         24.96173        47.72011         3.63359
C         27.73076        23.09333        -0.56615
C         27.72610        24.48623        -0.76353
C         26.49774        25.30983        -1.15143
C         27.70163        27.36685        -0.28928
C         26.51153        26.72035        -0.54936
C         27.70513        28.68485         0.45592
C         26.47184        29.49199         0.13580
C         27.72838        31.67356        -0.25015
C         26.52600        30.98067         0.36033
C         27.70705        33.06671        -0.42262
C         26.53969        33.83337        -0.19209
C         27.82372        35.91548        -0.10193
C         26.58816        35.24157         0.00353
C         27.93091        37.29914         0.38430
C         26.71060        38.04751         0.73912
C         28.06671        40.20270         0.73151
C         26.81499        39.47790         0.99190
C         28.11946        41.61671         0.95923
C         26.97086        42.36011         1.37654
C         28.28937        44.43621         1.49029
C         27.04307        43.73315         1.57507
C         28.39650        45.77925         1.92946
C         27.30315        46.33636         2.80343
C         28.53082        48.53441         2.78176
C         27.31906        47.83902         2.96921
C         28.61852        49.97458         2.97649
C         30.22416        22.94687        -0.67934
C         28.89554        22.33817        -0.53673
C         30.28007        24.43071        -0.56143
C         29.01019        25.18004        -0.79347
C         30.22426        27.32591        -0.00856
C         28.97744        26.67900        -0.50936
C         30.25820        28.80812        -0.03173
C         29.02668        29.57766         0.42352
C         30.16857        31.62080        -0.37198
C         28.96179        30.93852        -0.27289
C         30.21815        33.12433        -0.32456
C         28.95899        33.76477        -0.90185
C         30.16023        35.92282        -0.90073
C         28.99157        35.24900        -0.59594
C         30.20389        37.39912        -0.80283
C         29.19605        38.05630         0.08526
C         30.41793        40.19551        -0.09143
C         29.20793        39.53275         0.18605
C         30.53189        41.58645         0.37614
C         29.33218        42.34283         0.75694
C         30.67476        44.45242         0.79004
C         29.43655        43.72212         1.01173
C         30.77768        45.85186         1.23456
C         29.61544        46.49941         1.83880
C         30.97496        48.57374         2.22688
C         29.68674        47.84325         2.28946
C         31.04411        50.06872         2.48312
C         29.74534        50.70316         2.78446
C         32.77229        20.10996        -0.06357
C         31.56668        20.72184        -0.16604
C         32.75904        22.91444        -0.09259
C         31.51144        22.16570        -0.48843
C         32.74233        24.40826        -0.08473
C         31.45234        25.09165        -0.36986
C         32.73027        27.26126        -0.51955
C         31.48502        26.55018        -0.10539
C         32.68688        28.74824        -0.61521
C         31.43255        29.45249        -0.24248
C         32.73274        31.64207        -0.54174
C         31.45145        30.92681        -0.18515
C         32.64107        33.06198        -0.97169
C         31.46578        33.74194        -0.92345
C         32.64817        35.94258        -1.60124
C         31.37890        35.18009        -1.31969
C         32.67909        37.45001        -1.61638
C         31.45126        38.16940        -1.12868
C         32.82722        40.20697        -0.76334
C         31.59812        39.54705        -0.60436
C         32.82089        41.68945        -0.77364
C         31.74753        42.37546        -0.00184
C         33.10999        44.45501         0.15623
C         31.73124        43.83545         0.14634
C         33.02246        45.98134         0.16535
C         31.96480        46.53429         1.09010
C         33.36528        48.75545         1.26749
C         32.06127        47.98862         1.38523
C         33.42820        50.21494         1.65550
C         32.21039        50.85759         1.96523
C         33.15797        53.01913         1.28127
C         32.12263        52.26582         1.80808
C         35.38740        18.61259        -0.25883
C         35.28450        20.06527        -0.43328
C         34.03188        20.81623        -0.23508
C         35.27870        22.97955        -0.15891
C         34.05710        22.20594        -0.21894
C         35.24373        24.43447        -0.18031
C         34.02506        25.14853        -0.23412
C         35.21691        27.28884        -0.59579
C         34.02563        26.55163        -0.42754
C         35.20414        28.72673        -0.84889
C         33.96599        29.49222        -0.74254
C         35.11694        31.55647        -1.53678
C         33.94322        30.85821        -0.88606
C         35.18272        33.04092        -1.25844
C         33.94117        33.77909        -1.04124
C         35.23081        35.94029        -1.53342
C         33.95139        35.28264        -1.26380
C         35.33154        37.41024        -1.88816
C         33.99839        38.16363        -1.67626
C         35.27458        40.23812        -1.22983
C         34.05124        39.57307        -1.20153
C         35.35417        41.68857        -0.82851
C         34.06238        42.43832        -1.11095
C         35.44210        44.52742        -0.80793
C         34.05575        43.96696        -0.98374
C         35.57071        45.85330        -0.18254
C         34.39251        46.55458         0.44000
C         35.85975        48.36310         1.00358
C         34.55089        47.96278         0.85471
C         35.88726        50.52633         1.21360
C         34.55501        51.03466         1.30286
C         35.54797        53.12594         0.44508
C         34.42095        52.42621         1.00599
C         35.51370        54.56141         0.26918
C         37.84886        18.73300        -0.11343
C         36.60834        18.01457        -0.29775
C         37.81877        20.13113         0.15412
C         36.60984        20.86592        -0.25671
C         37.74533        23.05378         0.05106
C         36.51432        22.32314        -0.05354
C         37.72299        24.49604        -0.11168
C         36.47048        25.17468        -0.22572
C         37.69326        27.30071        -0.52980
C         36.46171        26.58811        -0.44800
C         37.70437        28.67028        -1.16485
C         36.40145        29.42148        -1.06056
C         37.62840        31.53474        -1.39170
C         36.42186        30.83404        -1.29314
C         37.63077        32.98594        -1.36752
C         36.37691        33.73401        -1.31329
C         37.63263        35.88476        -1.08051
C         36.39208        35.20341        -1.36623
C         37.72834        37.38054        -0.73260
C         36.52519        38.12644        -1.27255
C         37.80965        40.23228        -1.30959
C         36.53732        39.51308        -1.28399
C         37.81386        41.69496        -1.40942
C         36.60348        42.40334        -1.28706
C         37.83345        44.54539        -1.43925
C         36.60599        43.83560        -1.21454
C         37.84788        46.01964        -1.33923
C         36.69701        46.71227        -0.60981
C         38.01749        48.77614        -0.21922
C         36.92501        47.96650         0.11607
C         38.20898        50.25354         0.26116
C         36.91378        51.05784         0.46342
C         37.84536        53.12454        -0.51131
C         36.75145        52.43585         0.07686
C         37.66308        54.54571        -1.00234
C         36.50467        55.24170        -0.35142
C         40.56973        16.58909        -1.58062
C         39.31129        16.94000        -1.20083
C         40.19969        18.35886         0.55024
C         39.08960        18.00689        -0.23756
C         40.07762        20.42957         1.23350
C         38.94130        20.94113         0.57776
C         40.24516        23.01973         0.20500
C         38.93296        22.35711         0.31343
C         40.21790        24.52447        -0.14701
C         38.92312        25.23252        -0.15791
C         40.21217        27.39358        -0.53323
C         38.90721        26.64204        -0.32749
C         40.12083        28.89840        -0.20287
C         38.91635        29.51791        -0.86896
C         40.19378        31.54472        -1.50924
C         38.89433        30.85068        -1.15300
C         40.16194        33.08048        -1.30932
C         38.80812        33.67905        -1.09566
C         40.55695        36.13333        -0.57914
C         38.64358        35.04301        -0.68925
C         40.34837        37.49152        -1.05109
C         39.06169        38.10477        -1.10905
C         40.22530        40.25359        -1.97838
C         39.01064        39.50395        -1.41000
C         40.34551        41.69144        -1.41888
C         39.03283        42.42661        -1.57041
C         40.24554        44.60559        -2.07878
C         39.02785        43.83552        -1.66853
C         40.28985        46.09566        -1.83323
C         39.09468        46.76827        -1.27052
C         40.29901        48.86775        -1.31511
C         39.09593        48.10842        -0.90586
C         40.29519        50.34616        -1.28235
C         39.15729        51.03885        -0.63507
C         40.18693        53.12008        -1.54562
C         39.03989        52.40344        -0.83643
C         40.07471        54.60803        -1.33110
C         38.98329        55.30489        -0.92899
C         40.15904        57.34377        -0.06068
C         39.10470        56.75151        -0.67296
C         43.13592        16.85235        -1.25849
C         41.74959        17.42310        -1.13425
C         42.60318        18.33461         1.05505
C         41.50860        17.97800         0.23845
C         42.41808        20.36263         1.93172
C         41.33542        21.11858         1.44127
C         42.61416        23.25739         0.79312
C         41.45410        22.47487         0.86653
C         42.63064        24.60940         0.26325
C         41.44742        25.28013         0.04699
C         42.67550        27.48139         0.01083
C         41.36821        26.76483         0.24693
C         42.69478        28.82290        -0.34938
C         41.45192        29.57113        -0.55333
C         42.73636        31.55292        -1.43133
C         41.45730        30.86095        -1.00371
C         42.74094        33.02532        -0.97951
C         41.46939        33.83225        -1.13917
C         42.85645        35.98558        -1.22976
C         41.59381        35.30520        -0.89963
C         42.73760        37.34442        -1.82766
C         41.51766        38.14018        -1.55644
C         42.75131        40.17761        -2.14099
C         41.53961        39.50674        -1.87619
C         42.70072        41.63826        -2.29020
C         41.52257        42.40942        -2.03548
C         42.79499        44.59020        -1.70214
C         41.57593        43.88418        -2.35889
C         42.80183        46.00875        -1.49755
C         41.59609        46.76677        -1.62267
C         42.76864        48.81992        -0.96057
C         41.58754        48.12984        -1.32359
C         42.61025        50.25097        -0.45809
C         41.67249        51.01789        -1.42121
C         42.75722        53.19316        -0.42008
C         41.60504        52.54243        -1.17549
C         42.64898        54.53764         0.21592
C         41.80440        55.46208        -0.27991
C         42.46800        57.24350         1.19093
C         41.25879        56.54962         0.60332
C         44.15514        17.30668        -0.47029
C         45.03673        18.72823         1.56267
C         43.93147        18.14551         0.68381
C         44.97237        20.26912         1.69042
C         43.78282        20.83155         2.07289
C         45.11376        23.29869         0.99467
C         43.87531        22.91987         1.42873
C         45.17313        24.53129         0.10853
C         43.89328        25.33998         0.24362
C         45.16011        27.49540         0.39703
C         43.89645        26.71225         0.15563
C         45.18358        28.78033        -0.38534
C         43.98829        29.48268        -0.61265
C         45.23873        31.56652        -1.14079
C         44.01115        30.85315        -1.00823
C         45.28116        32.95431        -1.32408
C         44.07492        33.74224        -1.05318
C         45.34004        35.87886        -1.84346
C         44.13116        35.22863        -1.25985
C         45.30267        37.24331        -2.05973
C         44.03370        38.01996        -2.17913
C         45.22866        40.17560        -1.94184
C         44.03222        39.50288        -2.12848
C         45.18850        41.58516        -1.48084
C         44.04773        42.43225        -1.91033
C         45.14977        44.50762        -1.03208
C         43.97476        43.85994        -1.51481
C         45.13783        45.88376        -0.78817
C         44.00272        46.69370        -1.10124
C         45.19103        48.89887        -0.61592
C         43.99383        48.14112        -0.94847
C         45.11648        50.21223         0.00810
C         43.89182        50.96187        -0.12675
C         44.95683        52.99038         0.75504
C         43.86510        52.34012         0.11601
C         44.88466        54.31483         1.25578
C         43.50376        54.94918         1.40799
C         43.51084        56.47420         1.54702
C         47.52079        18.92039         1.44036
C         46.40460        18.22103         1.20176
C         47.52351        20.34057         1.85905
C         46.22726        21.11345         1.86450
C         47.53851        23.19231         1.26930
C         46.31512        22.58303         1.43472
C         47.69012        24.50887         0.48565
C         46.42025        25.32643         0.40317
C         47.69588        27.43015         0.34916
C         46.43774        26.68594         0.33178
C         47.71852        28.75430        -0.07122
C         46.49583        29.36267        -0.66366
C         47.71530        31.61865        -0.62153
C         46.52257        30.82682        -1.06004
C         47.73218        33.08263        -0.91616
C         46.57718        33.62512        -1.74692
C         47.80388        35.81010        -1.75744
C         46.58570        35.14700        -1.76699
C         47.85197        37.26370        -1.98754
C         46.55146        38.01080        -2.18334
C         47.76392        40.15463        -1.58123
C         46.46352        39.38688        -1.54546
C         47.68366        41.65973        -1.77923
C         46.46071        42.29001        -1.09741
C         47.68235        44.55948        -1.17918
C         46.45613        43.77104        -0.69790
C         47.66034        46.00522        -0.77920
C         46.37372        46.34581        -0.03917
C         47.63019        48.81462        -0.16907
C         46.47490        48.46842        -0.99797
C         47.53599        50.15790         0.55102
C         46.26935        50.88013         0.42063
C         47.46030        52.95925         1.21540
C         46.16296        52.17758         1.15243
C         47.33932        54.30432         1.53527
C         46.07374        54.93245         1.66520
C         50.00730        20.42385         2.01901
C         48.81996        21.05912         1.79244
C         50.10936        23.17447         1.47842
C         48.77676        22.56658         1.88541
C         50.15827        24.62601         1.14789
C         48.88156        25.34980         0.90645
C         50.24372        27.41920         0.63017
C         48.90069        26.70751         0.73254
C         50.10202        28.93474         0.66629
C         48.92338        29.56403         0.01491
C         50.15777        31.79150         0.08681
C         48.96472        30.90717        -0.27585
C         50.22192        33.10616        -0.66440
C         49.03558        33.78733        -0.98893
C         50.27098        35.85866        -1.34114
C         49.04680        35.14181        -1.39509
C         50.28375        37.32200        -1.42592
C         49.03804        38.02756        -1.56416
C         50.20014        40.15490        -0.96342
C         48.95350        39.45321        -1.45880
C         50.23562        41.64255        -1.26756
C         48.99889        42.41304        -1.58908
C         50.17653        44.57246        -1.16305
C         48.99698        43.87965        -1.31416
C         50.17114        45.91694        -0.40653
C         48.92606        46.75147        -0.57443
C         50.08307        48.81861         0.22478
C         48.93959        48.11348        -0.26773
C         50.03615        50.18195         0.65632
C         48.79480        50.88562         0.78988
C         49.96643        52.91897         1.40035
C         48.73346        52.26008         1.12750
C         51.24750        21.13267         2.18247
C         52.59801        23.21955         1.98597
C         51.33904        22.48722         1.97081
C         52.62008        24.63748         1.83698
C         51.34307        25.38519         1.67184
C         52.62784        27.61649         1.67071
C         51.31112        26.87800         1.61096
C         52.66545        28.97299         1.04457
C         51.38317        29.70118         0.73785
C         52.67982        31.59480        -0.21302
C         51.47274        31.03711         0.11633
C         52.72530        32.88771        -1.01506
C         51.46561        33.74844        -0.85372
C         52.76388        35.84355        -1.28083
C         51.47327        35.13024        -1.14403
C         52.78207        37.35297        -1.31851
C         51.48193        38.03241        -1.32899
C         52.69982        40.25085        -1.06843
C         51.46676        39.51698        -1.57912
C         52.74608        41.74072        -1.36070
C         51.45966        42.38187        -0.74809
C         52.65992        44.37996        -1.40657
C         51.43507        43.82605        -1.16728
C         52.59783        46.50472        -0.96905
C         51.39755        46.81438        -0.41149
C         52.60742        48.88528         0.37738
C         51.35332        48.03716         0.47361
C         52.54854        50.23567         0.77127
C         51.26420        50.88299         0.95415
C         51.17259        52.24595         1.33263
C         55.03514        23.22761         2.18083
C         53.83219        22.54551         2.15794
C         55.07408        24.63693         2.02798
C         53.83923        25.32346         1.83430
C         55.14746        27.38144         1.25627
C         53.91684        26.82868         1.94682
C         55.15438        28.62687         0.46991
C         53.88663        29.43547         0.31358
C         55.16790        31.51972        -0.12283
C         53.94320        30.87861        -0.03135
C         55.22176        32.95593        -0.22141
C         54.03472        33.64911        -0.79468
C         55.08065        35.88373        -0.09483
C         54.02462        35.13901        -0.86237
C         55.00419        37.41372        -0.01511
C         54.01142        38.06245        -0.94775
C         55.27184        40.26783        -0.77598
C         53.95074        39.51943        -0.75301
C         55.16497        41.74928        -0.43530
C         53.97146        42.45176        -0.81243
C         55.01528        44.69154        -0.46786
C         53.91933        43.84751        -0.88595
C         55.01974        46.10790        -0.42253
C         53.87255        46.96812        -0.47808
C         55.10451        48.95363         0.34482
C         53.85889        48.26507         0.10010
C         55.00949        50.32438         0.77489
C         53.79693        50.93847         0.93821
C         57.52423        24.80423         2.56361
C         56.31401        25.37140         2.04528
C         57.61056        27.38589         1.33711
C         56.35412        26.71545         1.51301
C         57.67835        28.72137         0.88009
C         56.47006        29.31434         0.24490
C         57.68694        31.57740         0.26051
C         56.46702        30.80936        -0.04168
C         57.63097        32.96663         0.37512
C         56.38839        33.64804         0.04036
C         57.61934        35.87865         0.27290
C         56.32956        35.12468         0.21747
C         57.61118        37.39073         0.22861
C         56.34230        38.14020         0.01909
C         57.49521        40.25077         0.54083
C         56.36164        39.49841        -0.04923
C         57.43610        41.76526         0.56929
C         56.25638        42.47316        -0.00190
C         57.44155        44.70030         0.37272
C         56.12096        43.95632         0.30427
C         57.47930        46.04749         0.26339
C         56.35010        46.83710        -0.35372
C         57.59169        48.94053         0.14530
C         56.30847        48.27700         0.13738
C         58.72771        25.42624         2.43904
C         59.97264        27.58502         2.08138
C         58.90037        26.65083         1.59073
C         59.96029        28.89785         1.72418
C         58.86978        29.46874         0.97679
C         60.11347        31.65371         0.83090
C         58.99845        30.81768         0.27200
C         59.99980        32.98321         1.06233
C         58.80145        33.73026         0.76457
C         59.93223        35.94138         1.09975
C         58.81131        35.15472         0.77478
C         59.92802        37.34804         1.06040
C         58.81617        38.11406         0.69644
C         59.88601        40.34371         1.07609
C         58.78830        39.55817         0.75956
C         59.82884        41.77036         1.09579
C         58.69865        42.49029         0.78928
C         59.92430        44.68263         0.50849
C         58.65793        43.99843         0.97577
C         59.95060        46.01205         0.36333
C         58.71837        46.80688         0.72310
C         58.74453        48.24002         0.26896
O         40.40737        23.49678        -1.17376
O         36.15852        49.35791         1.93616
O         39.94838        19.11837         1.72063
O         29.20534        30.04538         1.75327
O         39.95377        49.64697        -2.54322
O         36.80123        46.75743        -2.05511
O         29.03674        37.42402         1.38655
O         33.16272        42.05270        -2.18324
O         47.32051        48.89892         1.26427
O         47.38076        37.75455        -3.33007
O         31.02181        22.44351        -1.84023
O         50.76041        27.13038        -0.65066
O         43.66715        42.18167        -3.24779
O         29.13464        26.18076        -1.88833
O         41.25999        55.32270        -1.56064
O         43.16649        37.44063        -3.22473
O         31.65581        41.73204         1.33400
O         53.00506        39.95482         0.32426
O         50.37161        23.60686         0.09457
O         32.64636        23.63572         1.18186
O         32.51448        27.90330        -1.83108
O         33.97693        34.72465         0.10463
O         39.56484        35.56257         0.21742
O         47.38577        45.57112        -2.17652
O         46.32919        46.65817         1.13541
O         39.97771        45.55414        -3.17107
O         31.44935        49.08787         3.51366
O         52.73976        28.83548         2.50065
O         50.46219        29.61224         1.90152
O         33.15588        38.01993        -2.87900
O         57.03734        40.96261         1.75983
O         42.27283        19.00605         2.25889
O         54.31133        28.52421        -0.74133
O         56.67335        29.78590        -1.11588
O         40.24846        31.28544        -2.91268
O         47.33783        32.62013         0.40505
O         55.32254        35.38417         1.27481
O         30.87359        26.81324         1.21102
O         43.82685        22.13630         2.58369
O         54.51281        34.35872        -2.00259
O         57.88647        36.57529        -0.99291
O         35.33565        45.76335         1.26658
O         40.85469        33.69279        -2.46517
O         52.68748        45.61554        -2.04420
O         50.90817        26.21024         2.82767
O         32.31175        31.49180         0.87549
O         45.69229        41.59604        -0.07354
O         49.94240        41.98634        -2.65433
O         43.44822        33.31622         0.23449
O         46.72093        29.81392        -2.06267
O         25.20381        32.25665        -1.38734
O         43.74607        35.97191        -0.03977
O         46.85413        20.71895         3.14629
O         31.88137        35.38217        -2.70106
O         30.33666        38.08305        -2.09558
O         24.48436        38.48865         2.73055
O         52.93223        36.49883        -2.56729
O         42.69256        53.19438        -1.89190
O         36.07713        20.50689        -1.57619
O         32.34038        48.74131         0.14219
O         46.69585        47.93326        -2.21252
H         45.85332        47.77644        -2.68582
O         38.86327        50.15614         1.55976
H         38.20403        49.76866         2.17938
O         40.62379        55.82428         1.72837
H         40.14769        56.48788         2.27174
O         50.11621        45.38423         0.97152
H         50.36335        46.12549         1.58632
O         24.62742        42.58108        -0.22493
H         23.75686        42.82438        -0.60456
O         45.24462        24.12820        -1.28568
H         46.19888        23.99020        -1.50401
O         51.52954        42.29674         0.69101
H         50.95973        43.00293         1.06846
O         39.95778        40.42325        -3.39324
H         39.94911        39.53972        -3.81742
O         51.42437        39.68259        -3.01928
H         50.67855        39.15319        -3.37449
O         26.59313        25.46449        -2.60335
H         27.49425        25.82765        -2.78907
O         41.74330        18.60767        -2.03953
H         41.82421        18.27511        -2.95891
O         25.56027        41.70483         3.18793
H         26.22330        41.10216         3.58606
O         42.80118        31.55695        -2.87610
H         41.84838        31.47914        -3.21203
O         49.94169        32.21491         1.46933
H         49.92312        31.39187         2.01934
O         40.54912        27.28216        -1.92988
H         39.81948        27.69185        -2.45312
O         54.21129        27.00988         3.37493
H         53.80972        27.87000         3.64375
O         37.61370        37.47937         0.72352
H         38.30381        36.88370         1.09808
O         55.66872        43.98229         1.71850
H         54.94739        43.32245         1.81544
O         27.63201        45.81637         4.16275
H         28.48276        46.22663         4.43114
O         34.85615        31.44522        -2.98694
H         35.69795        31.63064        -3.45687
O         47.95761        24.06800        -0.89253
H         48.92327        23.83753        -0.93601
O         40.60783        41.59727         0.01751
H         39.89937        41.04451         0.41318
O         33.62874        44.50006        -2.25167
H         33.19309        43.77152        -2.75440
O         39.85516        29.13315         1.20492
H         40.29794        28.42623         1.73468
O         54.42999        37.71381         1.30162
H         54.71079        36.99484         1.91620
O         52.76775        41.98378        -2.77225
H         52.09068        41.41019        -3.20534
O         48.68432        22.86363         3.31683
H         47.97304        22.28191         3.68041
O         52.70195        32.47620        -2.40394
H         53.21021        33.14870        -2.91489
O         42.93966        54.42055         2.63604
H         42.00655        54.74457         2.66447
O         37.86278        28.35879        -2.61313
H         37.03102        27.93637        -2.91962
O         46.27664        39.00789        -0.13587
H         46.14469        39.84020         0.37797
O         29.03470        33.58449        -2.33694
H         28.23486        33.97357        -2.74745
O         30.26026        33.44422         1.09066
H         30.95227        32.87117         1.50098
O         58.53758        44.17729         2.42839
H         57.61432        43.91741         2.65942
O         51.29282        47.60373         1.89296
H         51.01184        48.37864         2.42601
O         50.19791        39.94892         0.45782
H         51.03464        40.31633         0.83262
O         26.70118        31.18480         1.79426
H         27.62901        30.84804         2.00748
O         41.06754        26.86526         1.69139
H         41.85953        26.55415         2.18037
O         27.55756        28.28133         1.84584
H         28.22266        28.85023         2.34604
O         46.60427        43.79698         0.74114
H         45.98666        43.13352         1.12296
O         35.39336        41.72551         0.65016
H         36.15553        41.18494         0.95074
O         40.03737        52.86374        -2.96719
H         40.90043        53.07674        -3.38724
O         32.60771        46.41852        -1.14532
H         32.46845        47.39620        -1.09789
O         56.73266        46.95629        -1.77691
H         56.00467        47.42131        -2.24210
O         55.67262        40.23199        -2.18041
H         56.48678        40.76497        -2.29330
O         44.79269        18.23962         2.91348
H         45.41797        18.70791         3.50875
O         46.85141        33.19386        -3.11066
H         46.12229        33.49172        -3.69427
O         59.37012        26.15666         0.27311
H         59.51279        26.94518        -0.29423
O         58.65002        46.88990         2.17835
H         58.66624        45.95639         2.51971
O         45.08019        27.92599         1.81096
H         44.31989        28.54113         1.89378
O         25.67806        45.10059         0.23798
H         25.48203        44.30966        -0.32299
O         35.61893        37.47022        -3.31747
H         34.74978        37.54426        -3.78029
O         41.88139        50.16812         0.80307
H         42.48327        49.80488         1.48704
O         47.34711        41.82783        -3.19163
H         48.18537        41.73167        -3.69962
O         42.16646        50.81483        -2.74836
H         41.44553        50.36620        -3.25716
O         37.33464        54.43640        -2.43050
H         38.03629        53.89090        -2.85551
O         45.89563        51.79852         2.56901
H         45.62326        52.61915         3.03562
O         41.85436        43.99369        -3.77709
H         41.32016        44.75374        -4.11373
O         33.63855        44.00937         1.41816
H         34.00283        43.09867         1.33057
O         59.33786        30.51982        -1.12301
H         58.51520        30.16402        -1.54056
H         21.90460        26.78467         0.01231
H         21.84113        29.22829         0.33750
H         21.82716        31.25754         0.41053
H         21.89177        33.67327         0.48736
H         21.95756        35.61806         0.53810
H         22.07883        37.90660         1.36140
H         22.23248        39.84174         1.93991
H         22.23863        42.21413         1.46977
H         22.50750        43.87972         2.64477
H         22.69244        46.18678         3.51482
H         25.13522        23.53014        -1.13998
H         23.12533        24.69749        -0.41146
H         26.15219        49.47518         3.84100
H         24.07692        48.19892         4.07727
H         26.77328        22.55756        -0.49261
H         27.69552        50.51254         3.23402
H         28.82058        21.24310        -0.48639
H         29.69151        51.79689         2.88047
H         32.80370        19.02560         0.11272
H         30.63786        20.13781        -0.10154
H         32.99108        54.08715         1.08723
H         31.17608        52.77382         2.03822
H         34.47857        17.99905        -0.19172
H         34.65847        55.11912         0.67753
H         36.66399        16.91595        -0.29814
H         36.42693        56.33235        -0.46813
H         40.72155        15.80879        -2.34157
H         38.43864        16.43401        -1.64065
H         40.15670        58.43777         0.06859
H         38.27150        57.39008        -1.01129
H         43.36232        16.20155        -2.11664
H         42.47598        58.33282         1.35374
H         45.18230        16.98518        -0.69822
H         44.37451        56.94533         2.03966
H         48.49521        18.45873         1.22249
H         46.49154        17.17328         0.87919
H         48.23261        54.92005         1.71313
H         46.05779        55.96448         2.04120
H         50.04180        19.32868         2.11328
H         49.96959        53.97787         1.69140
H         52.12873        20.54399         2.47099
H         52.08727        52.80390         1.57371
H         55.96948        22.66345         2.30599
H         53.84571        21.45304         2.26971
H         55.93104        50.88984         0.97134
H         53.78454        51.99219         1.24795
H         57.46550        23.85786         3.12116
H         57.62534        50.03284         0.00763
H         59.63054        24.97425         2.87594
H         60.83919        27.16131         2.60947
H         60.80929        29.53402         2.00968
H         61.09361        31.17799         0.97463
H         60.88098        33.52624         1.43200
H         60.86170        35.45430         1.42453
H         60.84994        37.86091         1.36975
H         60.85431        39.87238         1.29509
H         60.75359        42.30432         1.35735
H         60.81092        44.07406         0.27654
H         60.86069        46.53266         0.02818
H         59.71506        48.75769         0.23494
