         349
 CSIRO Nanostructure Databank - Neutral Graphene Oxide Data Set
C          1.52343         2.90646         2.30947
C          1.36818         3.98253         1.43657
C          2.74517         2.25169         2.38725
C          2.42422         4.40553         0.59364
C          1.10587         6.35280        -0.25372
C          1.07595         7.68569        -0.72952
C          2.26323         5.59708        -0.23169
C          2.22366         8.37367        -1.13127
C          1.08612        10.57549        -0.79389
C          1.13988        11.94527        -0.36256
C          2.22578         9.84610        -1.07374
C          2.30615        12.56327        -0.01885
C          1.15417        14.71390         0.92547
C          1.25392        16.01612         1.30135
C          2.35206        13.89600         0.65044
C          2.52926        16.70088         1.43498
C          2.61616        18.05078         2.00166
C          3.82420         2.64899         1.55762
C          3.66589         3.73154         0.64540
C          5.08330         1.99808         1.72328
C          4.72282         3.94140        -0.43440
C          3.41580         6.14036        -0.97143
C          3.43377         7.58374        -1.27716
C          4.73989         5.38099        -1.04316
C          4.59723         8.04059        -1.88271
C          3.48743        10.59348        -1.08469
C          3.64295        11.85926        -0.25265
C          4.54449        10.19213        -1.83171
C          4.56638        12.85503        -1.02395
C          3.64643        14.66717         0.60205
C          3.68115        16.08057         1.01747
C          4.77317        14.17225        -0.25253
C          5.01354        16.67472         1.42883
C          3.77205        18.74805         1.99774
C          4.99203        18.19419         1.29093
C          6.23514         2.42805         1.05650
C          6.11494         3.43110        -0.03165
C          7.50406         1.96792         1.43730
C          7.37564         4.17046        -0.40804
C          5.98243         6.18533        -1.22218
C          5.93236         7.53085        -1.63153
C          7.28697         5.51484        -1.07527
C          7.13739         8.41327        -1.68848
C          5.89394        10.77573        -1.83741
C          5.90201        12.23306        -1.49824
C          7.12544         9.90572        -1.75115
C          7.22514        12.73006        -1.00307
C          6.10286        14.80826        -0.00521
C          6.23537        16.06420         0.77850
C          7.32168        13.97501        -0.19557
C          7.42451        16.74325         0.76546
C          6.32637        18.78638         1.66434
C          7.49348        18.14429         1.22725
C          8.70608         2.60951         1.01511
C          8.64544         3.75828         0.21095
C          9.96887         2.15069         1.52611
C          9.90242         4.40527        -0.31012
C          8.51921         6.35751        -1.20217
C          8.39814         7.81203        -1.48606
C          9.73513         5.94029        -0.39195
C          9.65537         8.49236        -1.67369
C          8.32102        10.60126        -1.71906
C          8.41484        12.12338        -1.73321
C          9.59510         9.91992        -2.00841
C          9.74504        12.68430        -1.21651
C          8.66078        14.59206         0.18643
C          8.64950        16.11329         0.26376
C          9.73221        14.15318        -0.83468
C          9.78325        16.83289         0.03832
C          8.68699        18.85982         1.03439
C          9.81148        18.33548         0.20348
C         11.15050         2.86662         1.32202
C         11.12400         4.06561         0.51051
C         12.38877         2.44835         1.89535
C         12.23625         4.86442         0.37849
C         11.01126         6.59276        -0.87674
C         10.91819         7.88104        -1.51309
C         12.21186         6.04917        -0.46051
C         12.14935         8.59688        -1.83514
C         10.88738        10.70800        -2.12108
C         10.92100        12.10798        -1.60950
C         12.15155         9.94583        -2.09751
C         12.21220        12.81216        -1.51726
C         11.09657        14.70949        -0.38398
C         11.05612        16.23946        -0.53832
C         12.27550        14.10821        -1.09793
C         12.32032        16.78861         0.07943
C         11.07352        18.77431         0.87645
C         12.25624        18.01944         0.83635
C         13.54779         3.21738         1.77612
C         13.46857         4.52955         1.11246
C         14.80849         2.78860         2.26046
C         14.77882         5.21756         0.72447
C         13.49112         6.59069        -0.96377
C         13.45279         7.88587        -1.77305
C         14.77375         6.20344        -0.36661
C         14.71874         8.62947        -1.89968
C         13.38180        10.69602        -2.45990
C         13.41799        12.16907        -2.10622
C         14.64031         9.87077        -2.78566
C         14.75141        12.82481        -1.94590
C         13.52526        14.91648        -1.05618
C         13.51685        16.14903        -0.19566
C         14.82133        14.26702        -1.46092
C         14.75556        16.70242         0.29216
C         13.46031        18.52181         1.37994
C         14.70020        17.90659         1.09780
C         16.00548         3.41715         1.90288
C         16.03780         4.54583         1.05171
C         17.29791         2.84383         2.42460
C         17.24605         5.02193         0.44830
C         15.96061         6.75024        -0.82377
C         15.93820         7.98334        -1.61872
C         17.22677         6.14405        -0.43684
C         17.17348         8.55484        -2.03092
C         15.93448        10.70198        -2.77840
C         15.80823        12.16723        -2.52103
C         17.23324         9.94722        -2.50902
C         17.47788        12.82400        -1.36484
C         16.14716        14.96426        -1.01378
C         15.99972        16.10545         0.01252
C         17.23693        14.00676        -0.46680
C         17.18852        16.68229         0.55418
C         15.89261        18.51609         1.53894
C         17.14797        17.93943         1.26793
C         18.49440         3.18575         1.57088
C         18.47184         4.32134         0.68969
C         19.63332         2.42736         1.70365
C         19.66387         4.72111         0.02473
C         18.43404         6.57459        -1.04445
C         18.42454         7.70674        -2.07745
C         19.62871         5.86720        -0.83301
C         19.71271         8.49092        -1.90862
C         18.38509        10.51815        -1.74774
C         18.09957        11.67113        -0.96702
C         19.67787         9.84650        -1.58221
C         19.87026        12.51261         0.03465
C         18.59040        14.74305        -0.30477
C         18.46922        16.05677         0.43330
C         19.73607        13.86457         0.18585
C         19.62586        16.70076         0.85284
C         18.34781        18.60792         1.63507
C         19.61426        18.04106         1.38069
C         20.85099         2.79358         1.04971
C         20.87728         3.97688         0.24469
C         22.01900         2.03562         1.24649
C         22.12822         4.40764        -0.27799
C         20.88229         6.28786        -1.51304
C         20.95693         7.67704        -2.16352
C         22.17108         5.60880        -1.15636
C         22.26265         8.45481        -1.89103
C         20.91940        10.57470        -1.23747
C         21.03425        11.84595        -0.56338
C         22.20268         9.95265        -1.66559
C         22.20547        12.63077        -0.64725
C         20.99407        14.61927         0.33520
C         20.93856        16.03956         0.73777
C         22.17814        14.07534        -0.36343
C         22.16341        16.85257         0.68802
C         20.84618        18.72115         1.59891
C         22.11759        18.17635         1.22617
C         23.26027         2.46190         0.72838
C         23.29291         3.67483        -0.03735
C         24.45762         1.73198         0.96521
C         24.60200         4.19839        -0.46554
C         23.43330         6.39751        -1.17544
C         23.49540         7.74559        -1.44073
C         24.66808         5.63195        -0.91304
C         24.74932         8.49455        -1.20737
C         23.52542        10.66273        -1.47413
C         23.49711        12.12106        -1.12409
C         24.77358         9.91558        -1.22957
C         24.74410        12.78867        -0.69167
C         23.41471        14.92303        -0.37519
C         23.37712        16.26362         0.29211
C         24.71818        14.21633        -0.45421
C         24.57074        16.98674         0.42528
C         23.34205        18.87488         1.38421
C         24.57829        18.29710         1.00156
C         25.73642         2.26375         0.66533
C         25.83446         3.57648         0.07756
C         26.92610         1.55202         0.94593
C         27.06610         4.20416        -0.05686
C         25.89013         6.37239        -0.43770
C         25.94090         7.81807        -0.86192
C         27.17683         5.57660        -0.71335
C         27.15651         8.51043        -0.65243
C         25.96288        10.63461        -0.92250
C         25.94709        12.07651        -0.70677
C         27.18085         9.92982        -0.69351
C         27.18190        12.76113        -0.40098
C         25.87250        14.93777        -0.31634
C         25.80823        16.40758        -0.13013
C         27.15301        14.21713         0.00295
C         27.08538        17.18567        -0.00409
C         25.83541        18.94167         1.24704
C         27.07408        18.38321         0.87261
C         28.18723         2.15273         0.76707
C         28.25321         3.52119         0.34901
C         29.41514         1.46746         1.03974
C         29.49884         4.20086         0.38878
C         28.34863         6.38179        -0.19742
C         28.35896         7.76700        -0.28185
C         29.49190         5.67133         0.34953
C         29.59817         8.49756        -0.08701
C         28.40801        10.63971        -0.38711
C         28.38888        12.08747        -0.29406
C         29.57990         9.93433        -0.11974
C         29.64194        12.81746        -0.05602
C         28.41243        14.96185        -0.38682
C         28.39041        16.47542        -0.25064
C         29.68057        14.23498        -0.13479
C         29.62814        17.11747         0.17433
C         28.30629        18.87932         1.32183
C         29.56592        18.26849         0.99024
C         30.62658         2.11286         0.94090
C         30.69264         3.51156         0.65866
C         31.95826         4.21002         0.56180
C         30.85990         6.41600         0.39752
C         30.83481         7.82446         0.00023
C         32.04970         5.55185         0.35529
C         32.05118         8.56788        -0.26243
C         30.83525        10.61996         0.37384
C         30.84250        12.11762         0.18590
C         32.06035         9.91699        -0.17013
C         32.02910        12.83639         0.37956
C         30.88788        14.94748         0.00355
C         30.92392        16.47018        -0.25138
C         32.06085        14.22664         0.27113
C         32.12491        17.13913         0.34737
C         30.77840        18.81380         1.49457
C         32.02352        18.23518         1.16481
O         16.85980        10.33376        -3.87597
O         14.11263        15.15819        -2.39458
O         22.35378         9.37697        -3.01348
O         18.74402        11.70658         0.29473
O         21.19040        14.94131         1.76645
O         23.61337        11.68686        -2.52638
O          5.92956        11.83042        -2.88380
O         17.01005        12.89487        -2.68159
O          3.83297         5.40538        -2.18681
O         28.41670        15.79074        -1.56924
O          7.23018        12.64259         0.46052
O          8.11459         5.51672        -2.32112
O         13.14729        11.71571        -3.47938
O          4.44316         9.13448        -2.73966
O         26.30531        17.27097        -1.23164
O          5.30495        15.14372        -1.21086
O         13.50091         6.58416        -2.43287
O         13.99263         5.65053         1.90709
O         22.57385        14.85486        -1.56563
O          3.33766        13.82954         1.78889
O         21.48636         5.30212        -2.42961
O         24.80918         4.55755        -1.90183
O         30.02615         6.22878         1.59509
O          6.84422         3.06315        -1.24720
O         10.10013        10.40992        -3.32981
O          9.29741        14.83018        -2.03383
H          9.93875        14.64970        -2.75351
O         16.64445        15.59745        -2.21405
H         15.85461        15.84663        -2.75221
O          3.80363        13.20834        -2.18710
H          4.35372        13.80992        -2.73463
O         19.11189        15.05729        -1.62299
H         18.36806        15.38509        -2.18855
O         11.10860        16.59253        -1.94318
H         10.84622        17.54425        -2.00260
O          4.26662        11.48563         0.98974
H          4.06005        12.19252         1.65160
O         27.21486        14.22629         1.48177
H         26.55021        13.58784         1.81741
O          8.34764        12.55118        -3.11215
H          8.91776        11.93375        -3.63227
O          4.28006         3.04560        -1.47815
H          5.02325         2.95771        -2.11675
O          8.91612        14.14493         1.53925
H          8.54882        13.23127         1.61403
O         17.19944         1.42997         2.62388
H         17.08397         1.00464         1.74963
O         30.86534        10.41772         1.83057
H         30.84510         9.44896         1.98937
O         27.36805         5.40149        -2.13232
H         26.58063         4.90812        -2.46956
O          9.46216         6.43629         0.94930
H         10.25317         6.26067         1.50321
O         31.03913        16.60491        -1.70377
H         30.17693        16.30468        -2.08450
O         20.96787         7.43999        -3.60578
H         21.46665         6.59873        -3.74839
O         16.77379        13.54383         0.81351
H         17.43870        12.90064         1.15668
O          9.75221        18.92536        -1.16375
H          8.86452        18.71695        -1.52771
O         14.43598         9.35827        -4.11365
H         15.32647         9.28064        -4.53024
O          4.81558        18.48608        -0.13119
H          4.75358        19.45818        -0.23646
O          5.12321        16.38089         2.85302
H          4.85442        15.44782         2.99411
O         25.72289         6.42177         1.01606
H         26.52307         6.84522         1.39666
O         18.37623         7.06896        -3.38400
H         19.27193         7.16886        -3.80377
O         11.41170        14.40437         0.99564
H         10.59306        14.47216         1.54768
O         10.13864         3.87420        -1.63566
H          9.37870         4.14830        -2.20769
H          0.68369         2.59008         2.94326
H          0.39876         4.49604         1.40149
H          2.88796         1.41491         3.08543
H          0.18440         5.96990         0.20595
H          0.12699         8.22543        -0.61319
H          0.09167        10.11103        -0.82940
H          0.17998        12.45943        -0.20259
H          0.16103        14.26159         0.78994
H          0.33823        16.58820         1.51375
H          1.70563        18.48228         2.44464
H          5.17318         1.21582         2.49170
H          3.80837        19.76917         2.40860
H          7.57183         1.16040         2.18140
H          6.37815        19.85251         1.94109
H          9.98623         1.24245         2.14559
H          8.72234        19.92095         1.32623
H         12.42799         1.49081         2.43542
H         11.08174        19.74662         1.39159
H         14.86627         1.86133         2.84981
H         13.44594        19.45619         1.96047
H         17.47491         3.28922         3.44627
H         15.83784        19.46669         2.08978
H         19.62201         1.54688         2.36264
H         18.27691        19.60430         2.09643
H         21.97217         1.12344         1.85898
H         20.81607        19.73746         2.02045
H         24.39123         0.75596         1.46782
H         23.33418        19.88485         1.81961
H         26.86206         0.52386         1.33146
H         25.83615        19.87639         1.82760
H         29.37693         0.40662         1.32666
H         28.31988        19.76558         1.97313
H         31.56027         1.56585         1.13677
H         32.87709         3.60505         0.58923
H         33.03163         6.01100         0.17109
H         32.96358         8.01759        -0.53519
H         32.98532        10.47968        -0.35884
H         32.95796        12.30271         0.62326
H         33.01521        14.75076         0.41328
H         33.11851        16.77801         0.04772
H         30.74211        19.70744         2.13249
H         32.93951        18.70037         1.55770
