         638
 CSIRO Nanostructure Databank - Neutral Graphene Oxide Data Set
C         23.12448        69.95024        -1.17257
C         23.07681        71.36498        -1.12432
C         21.83877        72.06097        -1.01834
C         23.01734        74.18017        -1.03023
C         21.81648        73.43977        -0.96095
C         25.60310        65.65124        -1.38173
C         25.52312        67.08904        -1.27118
C         24.35668        67.81546        -1.28869
C         25.55937        70.01962        -1.30900
C         24.34217        69.26492        -1.26939
C         25.54557        71.42170        -1.23572
C         24.29353        72.11554        -1.17348
C         25.50538        74.35277        -1.30968
C         24.24362        73.53782        -1.14161
C         28.17049        61.38122        -1.38784
C         28.00923        62.79594        -1.12106
C         26.89774        63.54703        -1.83808
C         28.04396        65.71765        -1.13100
C         26.81407        65.00382        -1.44503
C         28.03914        67.07692        -1.01535
C         26.80960        67.80989        -1.36457
C         28.16755        70.04523        -1.29805
C         26.84167        69.30092        -1.47164
C         27.99849        71.47388        -0.83267
C         26.78442        72.16764        -1.07996
C         27.93940        74.28048        -0.70794
C         26.76790        73.58753        -0.98613
C         30.43246        56.98375        -1.02927
C         30.00930        58.29356        -0.69024
C         29.29457        59.25894        -1.37619
C         30.47674        61.38324        -0.47758
C         29.28052        60.66360        -0.97121
C         30.54682        62.77596        -0.61839
C         29.30932        63.54381        -0.77526
C         30.54667        65.70778        -0.57253
C         29.36870        64.99441        -1.21047
C         30.45207        67.07858        -0.25891
C         29.12558        67.79921        -0.26947
C         30.33216        69.94632        -0.05793
C         29.23870        69.28089        -0.53552
C         30.24065        71.41683         0.29209
C         29.12587        72.16090        -0.38853
C         30.35711        74.26869        -0.14092
C         29.14087        73.58881        -0.37740
C         33.01532        52.88059        -0.85843
C         32.94406        54.25324        -0.56391
C         31.74346        54.98070        -0.74858
C         32.80384        57.09786        -0.02488
C         31.62249        56.37245        -0.53284
C         32.82812        58.47716         0.25620
C         31.67460        59.32658         0.25215
C         32.98333        61.34841        -0.07254
C         31.69196        60.67585        -0.10186
C         33.18164        62.78432        -0.55705
C         31.84802        63.55070        -0.89060
C         32.82934        65.65883         0.28029
C         31.74670        64.98983        -0.34739
C         32.72236        67.04053         0.60069
C         31.56626        67.77662         0.26313
C         32.63902        69.97211         0.77804
C         31.52077        69.23877         0.39885
C         32.69674        71.42833         0.71023
C         31.55230        72.14063         0.33585
C         32.74207        74.28595         0.42488
C         31.56624        73.58190         0.18508
C         35.60845        48.69308        -1.50118
C         35.62921        50.18473        -1.70972
C         34.32763        50.86430        -1.38019
C         35.47737        52.89308        -0.57171
C         34.25632        52.17195        -0.92840
C         35.41781        54.27098        -0.23300
C         34.14421        54.99791        -0.23111
C         35.36222        57.15927        -0.08559
C         34.06267        56.37018        -0.00195
C         35.34069        58.53631         0.55353
C         34.02455        59.21241         0.79790
C         35.43288        61.35840         0.40174
C         34.08430        60.66947         0.36266
C         35.26764        62.81172         0.77116
C         34.15429        63.50596         0.37781
C         35.19149        65.62994         1.00205
C         34.06819        64.94192         0.59150
C         35.15825        67.06968         1.31655
C         33.83978        67.76375         1.25099
C         35.13028        70.00956         1.44381
C         33.81956        69.26917         1.31721
C         35.15493        71.46106         1.14963
C         33.93879        72.12662         0.93274
C         35.20537        74.23100         0.53123
C         33.93296        73.63187         1.04122
C         38.04570        44.43123        -1.56232
C         38.01252        45.82994        -1.36982
C         36.80402        46.55526        -1.43026
C         38.10420        48.72848        -1.51679
C         36.78140        47.98012        -1.41412
C         37.99052        50.12319        -0.92980
C         36.82008        50.81383        -1.01650
C         37.90812        52.91410        -0.28722
C         36.72271        52.21222        -0.58565
C         37.85697        54.28076         0.01697
C         36.62197        54.94916         0.06311
C         37.85127        57.12532         0.36384
C         36.54263        56.37601         0.53396
C         37.79941        58.60394         0.60459
C         36.47986        59.20698         0.86024
C         37.74912        61.36773         1.37380
C         36.41775        60.64241         1.35660
C         37.72117        62.76335         1.52104
C         36.40505        63.44991         1.46415
C         37.68477        65.70027         1.56898
C         36.40318        64.95697         1.49334
C         37.68556        67.09790         1.50511
C         36.44151        67.83771         1.06587
C         37.62682        70.02760         1.84211
C         36.39068        69.27631         1.47047
C         37.64168        71.45940         1.32543
C         36.40823        72.14034         1.10858
C         37.64638        74.19978         0.50954
C         36.42078        73.54187         0.67715
C         40.55739        40.15006        -1.86107
C         40.53506        41.56951        -1.64312
C         39.33118        42.31324        -1.76938
C         40.44771        44.40718        -1.10441
C         39.26239        43.70714        -1.49515
C         40.43513        45.77335        -0.79296
C         39.23944        46.53530        -1.03310
C         40.44145        48.58079        -0.47871
C         39.27777        47.93350        -0.97459
C         40.53390        50.08395        -0.57600
C         39.19012        50.76024        -0.26386
C         40.40082        52.88874         0.22520
C         39.25459        52.26751        -0.55641
C         40.32621        54.20959         0.56199
C         39.17401        55.02203         0.04034
C         40.28847        57.07360         0.92138
C         39.09337        56.39467         0.61667
C         40.27682        58.56280         0.90348
C         39.01181        59.29882         1.02561
C         40.22101        61.35604         1.68359
C         38.98872        60.65354         1.35200
C         40.18183        62.81976         2.07397
C         38.89353        63.53013         1.73548
C         40.14776        65.68756         1.73878
C         38.90293        64.95880         1.71879
C         40.13468        67.11343         1.69341
C         38.90110        67.83492         1.61200
C         40.10794        69.96322         1.42031
C         38.90640        69.26653         1.56878
C         40.11632        71.40690         1.21412
C         38.86989        72.12017         1.18989
C         40.15896        74.19063         0.52874
C         38.89571        73.62575         1.10137
C         43.09372        35.92365        -2.21500
C         42.99434        37.27409        -1.87129
C         41.78573        38.01644        -2.01219
C         43.05513        40.15995        -1.71179
C         41.74321        39.40901        -1.81092
C         42.93100        41.49735        -0.99848
C         41.72831        42.22771        -1.23102
C         42.70009        44.23338        -0.07578
C         41.78081        43.72209        -1.16058
C         42.78200        45.70294         0.07972
C         41.61444        46.44158        -0.28093
C         42.66731        48.46321         0.73707
C         41.55988        47.84577        -0.08471
C         42.75711        49.96750         0.63492
C         41.63258        50.71165         0.27272
C         42.75249        52.78328         1.02712
C         41.58203        52.10599         0.53268
C         42.72889        54.18530         1.27111
C         41.39163        54.87506         1.39787
C         42.65975        57.05271         1.80921
C         41.46095        56.37029         1.20288
C         42.74308        58.53862         1.58041
C         41.52128        59.30140         1.28134
C         42.69875        61.39170         2.13222
C         41.42323        60.70448         1.69793
C         42.66959        62.83586         1.74121
C         41.38266        63.51939         1.42522
C         42.61361        65.70154         1.74736
C         41.40485        65.00490         1.70090
C         42.60592        67.13776         1.74260
C         41.36383        67.83292         1.64542
C         42.58085        69.90659         1.21590
C         41.35582        69.24345         1.44285
C         42.55985        71.29884         0.73203
C         41.30854        72.06065         0.86901
C         42.58302        74.10260         0.15661
C         41.33200        73.46594         0.51085
C         45.65698        33.18577        -2.53607
C         44.43990        33.86796        -2.61675
C         45.48275        35.79911        -1.56201
C         44.33359        35.19551        -2.14095
C         45.35679        37.14107        -0.98465
C         44.17850        37.96154        -1.35824
C         45.43611        40.09489        -0.88698
C         44.19206        39.31193        -1.20433
C         45.13848        41.18043         0.14752
C         44.00244        42.06049        -0.31609
C         45.11339        44.11017         0.75915
C         43.89778        43.42595         0.25150
C         45.16877        45.55587         0.83907
C         43.98222        46.29421         0.52901
C         45.12814        48.39366         1.35224
C         44.03600        47.81240         0.44274
C         45.14643        49.89935         1.28799
C         43.97283        50.61781         1.05495
C         45.18756        52.76183         1.40788
C         43.97095        52.06149         1.17107
C         45.18065        54.18658         1.44594
C         43.93771        54.89290         1.45411
C         45.16033        57.01863         1.52123
C         43.95993        56.32833         1.54609
C         45.17757        58.49581         1.23564
C         43.92600        59.22370         1.63338
C         45.17544        61.32927         1.60750
C         43.96416        60.65963         1.71416
C         45.19294        62.80295         1.48008
C         43.90237        63.55860         1.51377
C         45.09252        65.68788         1.88769
C         43.90976        65.02501         1.72813
C         45.11332        67.18060         2.11156
C         43.82377        67.84381         1.68653
C         45.05769        69.88668         1.09073
C         43.80621        69.20536         1.32519
C         45.09511        71.26498         0.91521
C         43.88696        72.04174         0.54758
C         44.99079        74.25510        -0.19354
C         43.83703        73.52505         0.28086
C         46.79011        33.79582        -2.00081
C         47.91823        35.79839        -1.04854
C         46.72931        35.12339        -1.50392
C         47.91565        37.13403        -0.65882
C         46.62301        37.83463        -0.53442
C         47.75888        39.97688        -0.03929
C         46.62685        39.29716        -0.43523
C         47.66663        41.37497         0.37936
C         46.40121        41.94282         0.53513
C         48.00033        44.31868         1.08095
C         46.15362        43.24152         1.10463
C         47.73796        45.70200         0.79113
C         46.44633        46.31426         0.94196
C         47.64813        48.49970         0.97428
C         46.44375        47.72520         1.02876
C         47.65949        49.89682         1.22683
C         46.40967        50.57407         1.74797
C         47.63829        52.75841         1.51469
C         46.42233        52.06135         1.51719
C         47.64798        54.19343         1.52195
C         46.41217        54.89975         1.52451
C         47.64396        57.03900         1.59247
C         46.41089        56.32265         1.52378
C         47.63038        58.49146         1.60470
C         46.45186        59.20550         1.58168
C         47.65580        61.37573         1.59056
C         46.44324        60.64495         1.56288
C         47.64172        62.82302         1.70983
C         46.44397        63.51762         1.74738
C         47.64830        65.70526         1.78917
C         46.39287        64.96099         2.17926
C         47.60604        67.08474         1.51506
C         46.34631        67.82232         1.49822
C         47.48073        69.76562         0.37804
C         46.29921        69.12946         1.07721
C         47.55292        71.26304         0.59278
C         46.39115        71.89029         0.97090
C         47.53650        74.16132        -0.47364
C         46.30383        73.93311         0.16611
C         49.08682        37.89871        -0.39226
C         50.23490        40.02319         0.02108
C         49.03768        39.26248        -0.05832
C         50.22146        41.40774         0.21712
C         48.98387        42.06137         0.80352
C         50.07191        44.28370        -0.21243
C         48.99119        43.56059         0.55033
C         50.12372        45.75461         0.16834
C         48.90514        46.44420         0.48468
C         50.10756        48.57558         0.59094
C         48.88744        47.85545         0.64125
C         50.10456        49.97023         0.85939
C         48.87171        50.63221         1.16350
C         50.11181        52.76636         1.38464
C         48.89007        52.04951         1.40296
C         50.12898        54.20557         1.59524
C         48.87189        54.91535         1.60273
C         50.11678        57.06277         2.08915
C         48.85900        56.32846         1.68606
C         50.18149        58.47018         1.55111
C         48.89648        59.22610         1.43704
C         50.13827        61.37340         1.62667
C         48.91165        60.69322         1.56330
C         50.14437        62.82118         1.65562
C         48.89901        63.54441         1.74281
C         50.14712        65.68065         1.78698
C         48.86853        64.95754         1.77220
C         50.11243        67.18384         1.47554
C         48.81135        67.80733         1.21745
C         49.98430        69.83474         0.44601
C         48.79054        69.12086         0.74226
C         49.92163        71.21221         0.03158
C         48.74823        71.97203         0.17327
C         49.93486        73.96366        -0.69130
C         48.71913        73.37437        -0.27855
C         51.38900        42.16691         0.00179
C         52.57983        44.32096        -0.12798
C         51.40318        43.58038        -0.06082
C         52.58531        45.75260        -0.07661
C         51.32493        46.45994         0.11377
C         52.56361        48.58912         0.36504
C         51.34275        47.88210         0.34240
C         52.58390        49.99717         0.62207
C         51.33349        50.70212         0.84757
C         52.58139        52.89610         0.90537
C         51.32438        52.08074         1.10497
C         52.60439        54.09250         1.85251
C         51.34268        54.90421         1.72253
C         52.62155        57.03174         1.87471
C         51.40545        56.31461         1.84857
C         52.63496        58.48687         1.86027
C         51.43108        59.22258         1.75550
C         52.62983        61.34593         1.69943
C         51.40175        60.64448         1.68390
C         52.63026        62.78762         1.52037
C         51.36864        63.51144         1.52742
C         52.56539        65.65684         1.24231
C         51.39735        64.95020         1.50558
C         52.56225        67.07606         0.95688
C         51.31349        67.80939         0.91921
C         52.45538        69.81901         0.06610
C         51.24412        69.13636         0.47742
C         52.42188        71.11879        -0.34984
C         51.10792        71.75759        -0.72631
C         52.36059        73.91607        -1.02936
C         51.16118        73.26568        -0.76421
C         53.77899        46.47029        -0.06753
C         55.02295        48.56662         0.27181
C         53.81272        47.88140         0.16352
C         55.07016        49.95198         0.63977
C         53.81267        50.67412         0.76052
C         55.03148        52.73756         1.30842
C         53.84703        52.07930         1.02999
C         55.04644        54.15873         1.55846
C         53.88093        54.89095         1.73005
C         55.10505        57.03934         1.94484
C         53.88947        56.32546         1.87897
C         55.11888        58.47895         1.83553
C         53.87508        59.19236         1.80283
C         55.10218        61.31544         1.55836
C         53.87068        60.62321         1.71420
C         55.13346        62.82294         1.65277
C         53.81470        63.47728         1.35861
C         55.08465        65.61776         0.91417
C         53.78223        64.87642         0.80411
C         55.06367        67.12179         1.06075
C         53.75065        67.71559         0.61272
C         54.97024        69.79996        -0.13581
C         53.70370        68.99197        -0.18140
C         54.94166        71.14326        -0.50664
C         53.63698        71.72218        -1.01823
C         54.79217        73.95671        -1.08422
C         53.62906        73.23866        -1.04167
C         56.26823        50.59279         0.90108
C         57.50774        52.78338         1.03305
C         56.32309        51.96947         1.49673
C         57.55504        54.13007         1.27736
C         56.34407        54.80418         1.82342
C         57.73744        56.99305         2.08582
C         56.37162        56.29028         2.11228
C         57.64192        58.51210         1.84380
C         56.33414        59.19706         1.71508
C         57.52682        61.31471         1.05212
C         56.32063        60.60731         1.47900
C         57.47175        62.72057         0.73880
C         56.28752        63.46419         0.92324
C         57.49851        65.55088         0.37001
C         56.27169        64.88547         0.73017
C         57.57449        67.05788         0.54072
C         56.25831        67.77455         0.42561
C         57.42022        69.80484        -0.39005
C         56.22129        69.11247         0.01609
C         57.37410        71.16745        -0.75313
C         56.14458        71.86434        -0.69423
C         57.29684        73.92899        -1.53963
C         56.13739        73.36777        -0.75917
C         58.67665        54.94432         0.91092
C         59.88819        57.02818         0.72488
C         58.74556        56.31045         1.15671
C         59.99520        58.42736         0.78417
C         58.85016        59.22530         1.29137
C         59.87747        61.26496         0.29410
C         58.72314        60.61945         0.82001
C         59.83534        62.64155         0.01453
C         58.64835        63.37253         0.24069
C         59.86767        65.47042        -0.31689
C         58.63730        64.80701         0.06637
C         59.78172        66.88485        -0.82352
C         58.65442        67.70729        -0.26599
C         59.78924        69.69021        -1.20868
C         58.63493        69.05182        -0.55694
C         59.67975        71.07610        -1.62133
C         58.54763        71.80967        -1.33799
C         59.67548        73.87305        -2.16933
C         58.46354        73.22600        -1.71518
C         61.10692        59.10519         0.26942
C         62.29320        61.18120        -0.26733
C         61.11765        60.51666         0.09176
C         62.33888        62.59929        -0.46187
C         61.01504        63.29812        -0.66331
C         62.29168        65.48719        -0.76868
C         61.05609        64.79085        -0.47111
C         62.29580        66.83998        -1.03603
C         61.07891        67.64973        -0.67647
C         62.10313        69.48699        -2.20043
C         60.96252        68.99209        -1.35108
C         62.12285        70.98806        -2.29512
C         60.78466        71.66508        -2.47484
C         62.09792        73.81965        -2.59182
C         60.84863        73.17119        -2.37909
C         63.52014        63.27943        -0.59872
C         64.77235        65.44894        -1.17096
C         63.59946        64.77994        -0.50546
C         64.75388        66.79749        -1.46676
C         63.49577        67.54193        -1.42094
C         64.62858        69.58842        -2.18281
C         63.43366        68.86555        -1.83873
C         64.56656        70.93877        -2.51113
C         63.30300        71.65765        -2.50006
C         64.54282        73.79907        -2.79147
C         63.30301        73.11604        -2.66844
C         65.93791        67.52252        -1.84603
C         67.11007        69.62700        -2.35779
C         65.90506        68.87786        -2.14213
C         67.08667        70.97832        -2.66332
C         65.78310        71.63315        -3.06943
C         66.99219        73.82498        -2.88334
C         65.76695        73.13180        -2.87179
C         68.27468        71.75624        -2.72511
C         68.21876        73.14059        -2.86000
O         58.58720        59.19797         2.74746
O         34.36574        67.24561         2.52631
O         36.09596        64.16036         2.70323
O         43.43878        40.49479        -3.05335
O         34.21461        69.75963         2.64327
O         50.26133        66.67310         2.85044
O         37.93690        58.04373        -0.79139
O         45.70147        37.20578         0.44470
O         30.46259        58.72851         0.57496
O         26.89767        68.48573        -2.70686
O         41.15384        59.10919        -0.15147
O         53.49703        71.21477        -2.35970
O         28.28771        63.26262         0.22951
O         42.72330        43.51274         1.19574
O         49.61461        58.69576         0.22940
O         56.36214        55.30335         3.20061
O         47.11300        43.72248         2.00320
O         46.41335        73.21479         1.38181
O         44.55778        63.21573         0.17260
O         43.20214        71.39629        -0.59437
O         52.60261        53.54678         3.20687
H         52.86331        54.26143         3.82476
O         38.34477        48.90966        -2.94363
H         37.55974        49.39390        -3.30164
O         57.97482        67.22535         1.97192
H         58.95096        67.11185         2.01068
O         28.63865        67.73204         1.12777
H         29.27003        68.23603         1.68588
O         25.43593        75.56830        -0.55640
H         25.38176        75.33732         0.39335
O         45.85574        40.74676        -2.11291
H         45.04966        40.77098        -2.72303
O         46.42953        64.91510         3.67166
H         47.33021        64.62357         3.93436
O         53.60506        64.69282        -0.66154
H         52.73586        64.25796        -0.79971
O         41.18909        63.36065        -0.01916
H         42.05190        63.51330        -0.46298
O         49.73838        44.22740        -1.63855
H         50.45129        44.68781        -2.12914
O         29.57750        64.97211        -2.68516
H         29.64572        65.90337        -2.98970
O         40.97541        54.66825         2.82311
H         41.05330        53.70748         3.01159
O         39.01040        50.61287         1.16982
H         38.11632        50.94153         1.40151
O         49.09615        41.83798         2.24015
H         48.35549        42.33295         2.66167
O         56.39488        73.81105         0.63683
H         57.27069        73.45330         0.89755
O         40.37032        62.92529         3.51934
H         39.52629        62.68023         3.95580
O         59.51620        66.74228        -2.25414
H         58.58566        66.45601        -2.36623
O         35.54673        57.31630        -1.51158
H         36.36379        57.85960        -1.64350
O         40.94070        50.30391        -1.94682
H         40.56240        51.16199        -2.26236
O         60.38838        71.36018        -3.86979
H         59.51230        71.77681        -4.02141
O         33.78494        59.22454         2.26257
H         33.81704        58.29535         2.57543
O         31.87003        63.68469        -2.34319
H         31.04001        64.12735        -2.65286
O         42.43175        44.15235        -2.41313
H         42.13243        43.55676        -3.13342
O         36.51247        67.84092        -0.42419
H         37.37211        68.24108        -0.67859
O         38.86086        74.10536         2.52080
H         38.19158        73.56079         2.99024
O         63.83760        65.00994         0.95026
H         63.88591        65.98088         1.08434
O         37.57996        70.17301         3.32551
H         36.68518        69.89890         3.62536
O         46.43542        50.39501         3.21886
H         46.06238        49.50146         3.40723
O         45.20645        67.39877         3.55983
H         45.71103        66.63527         3.93573
O         28.74404        70.20844        -2.63445
H         28.29572        69.54459        -3.21349
O         42.27953        48.17995         2.11034
H         43.04850        48.39305         2.69302
O         52.53048        53.42312        -0.45213
H         52.47538        52.66436        -1.06972
O         39.49339        52.50599        -1.97215
H         39.57815        53.48889        -2.07873
O         50.88453        71.34083        -2.11477
H         51.80779        71.29126        -2.52346
O         29.79944        71.37532         1.71461
H         30.59903        71.24683         2.26998
O         33.86480        73.93528         2.50866
H         34.39703        73.25474         2.97463
O         42.71820        61.38905         3.60937
H         41.92606        61.91136         3.89792
O         61.82352        68.99441        -3.55914
H         61.16535        69.61630        -3.95603
O         39.49560        55.23870        -1.40197
H         39.07527        56.08417        -1.67882
O         35.85686        50.38182        -3.16589
H         35.89767        51.35003        -3.32246
O         56.48720        51.78579         2.95059
H         56.50301        52.68022         3.35679
O         55.39157        63.10124         3.08863
H         56.19503        62.59875         3.34456
O         61.22410        67.91963         0.76160
H         62.01506        68.48644         0.88153
O         44.85012        48.04910         2.75951
H         44.90036        47.07016         2.83835
O         33.96390        62.66204        -1.78248
H         33.36363        62.85107        -2.54355
O         65.69525        71.44794        -4.52960
H         65.63249        70.48340        -4.69784
O         50.02165        57.23225         3.54753
H         49.97118        56.33928         3.95000
O         53.59305        68.60505        -1.59836
H         53.54974        69.48606        -2.09647
O         44.42373        48.16354        -0.90394
H         43.73399        47.83684        -1.52009
O         60.75920        63.14055        -2.10937
H         60.03326        63.75389        -2.35322
O         35.96250        60.71123         2.71998
H         35.08290        60.25622         2.78251
O         45.13926        58.57373        -0.24284
H         45.99925        58.24405        -0.58181
O         27.14688        63.47589        -3.25592
H         27.97651        63.97686        -3.43314
O         58.30136        56.79814         3.40045
H         58.85796        57.58943         3.59300
O         42.45596        56.94645         3.27147
H         41.97132        56.09884         3.44051
O         47.28396        69.51874        -1.05349
H         48.05164        69.90714        -1.52706
O         55.16480        67.40666         2.51106
H         56.10970        67.27283         2.76102
O         36.31865        56.32597         1.97574
H         35.66746        55.61603         2.15742
O         44.66288        40.51558         1.34991
H         44.30944        41.19455         1.96286
O         36.05856        61.26320        -0.90158
H         35.45325        61.72298        -1.53879
H         22.98750        75.27844        -0.99820
H         25.56576        74.66257        -2.39276
H         27.92690        75.38030        -0.70165
H         30.37743        75.36711        -0.20210
H         32.75301        75.38033         0.31022
H         35.21725        75.28774         0.22501
H         37.64915        75.25810         0.20479
H         40.16986        75.25715         0.25770
H         42.52771        75.15952        -0.14689
H         44.81330        75.05349        -0.93069
H         47.60091        74.97420        -1.21410
H         49.93065        75.03728        -0.94047
H         52.35898        75.01566        -1.12101
H         54.74450        75.05640        -1.15604
H         57.26710        74.99744        -1.80486
H         59.68270        74.97259        -2.22975
H         62.11802        74.91981        -2.63670
H         64.53493        74.90067        -2.79095
H         66.98558        74.92480        -2.85553
H         22.18446        69.38029        -1.12896
H         20.90306        71.48515        -0.97899
H         20.85919        73.97233        -0.87295
H         24.67018        65.07931        -1.50176
H         23.38799        67.29314        -1.30902
H         27.39938        60.87977        -1.99092
H         25.91690        63.04128        -1.65400
H         29.83065        56.39967        -1.74303
H         28.70512        58.98482        -2.26416
H         32.09428        52.35218        -1.14810
H         30.86403        54.43754        -1.12728
H         34.64092        48.16755        -1.52068
H         33.39883        50.35056        -1.67351
H         37.11511        43.90057        -1.81415
H         35.85374        46.00994        -1.54072
H         39.60392        39.63791        -2.06874
H         38.41266        41.78632        -2.06758
H         42.20996        35.40448        -2.61702
H         40.86015        37.47729        -2.27238
H         45.72345        32.15423        -2.90970
H         43.55758        33.37350        -3.04745
H         47.74372        33.24978        -1.96491
H         48.87254        35.25162        -1.09383
H         50.06986        37.41016        -0.47654
H         51.18714        39.52824        -0.22916
H         52.33270        41.62644        -0.18211
H         53.54800        43.79635        -0.10600
H         54.73251        45.93303        -0.18332
H         55.96919        48.01791         0.15106
H         57.21188        50.03315         0.80847
H         58.37904        52.27303         0.59427
H         59.51388        54.45876         0.38500
H         60.70004        56.46590         0.23719
H         61.98913        58.52524        -0.04071
H         63.23387        60.61049        -0.31160
H         64.46894        62.72271        -0.52785
H         65.72468        64.89819        -1.22209
H         66.90228        66.99206        -1.84879
H         68.07622        69.12440        -2.19364
H         69.24642        71.25712        -2.59421
H         69.15363        73.71862        -2.87359
