         261
 CSIRO Nanostructure Databank - Neutral Graphene Oxide Data Set
C        -11.02072         0.84495         1.38137
C         -9.81804         1.60333         0.94586
C         -8.69424         0.80013         0.33765
C         -7.61868         1.50910        -0.43499
C         -6.35627         0.77282        -0.74361
C         -5.07325         1.56986        -0.79141
C         -3.78847         0.81084        -0.93857
C         -2.47592         1.51459        -0.73226
C         -1.24090         0.74732        -0.39744
C          0.05636         1.41704         0.12200
C          1.22181         0.68507        -0.54555
C          2.53504         1.42498        -0.61443
C          3.81476         0.71121        -0.31625
C          4.93051         1.48657         0.36355
C          6.30539         0.80979         0.19976
C          7.59663         1.50888        -0.10792
C          8.89232         0.74888        -0.06729
C          9.98774         1.52298         0.61812
C         11.13839         0.71348         1.11691
C         -9.91480         3.06157         0.61330
C         -8.80108         3.70619         0.21072
C         -7.55177         3.00469        -0.21782
C         -6.29784         3.52785         0.45551
C         -5.03954         2.87123        -0.00839
C         -3.78940         3.69263        -0.11763
C         -2.52873         2.99942        -0.52750
C         -1.26110         3.68794        -0.16002
C          0.01965         2.95231         0.02005
C          1.34447         3.71663        -0.03912
C          2.45708         2.95084        -0.77491
C          3.76274         3.69448        -0.45860
C          4.98436         2.99012         0.02843
C          6.22375         3.51337        -0.65595
C          7.64716         3.00677        -0.39225
C          8.50916         3.57928         0.71730
C          9.63809         2.86456         1.12880
C         -8.38982         4.85708        -0.69715
C         -7.33217         5.74955        -0.08970
C         -6.39582         5.02223         0.86973
C         -5.00721         5.70688         1.00139
C         -3.72723         5.00731         0.62356
C         -2.42641         5.79347         0.53063
C         -1.30083         5.18231        -0.25832
C         -0.01408         5.90626        -0.39357
C          1.24141         5.12216        -0.69539
C          2.51531         5.84066        -1.05782
C          3.84779         5.07683        -1.08019
C          5.17474         5.79635        -1.12004
C          6.47222         5.02226        -0.75362
C          7.23743         5.66481         0.39694
C          8.21862         4.90507         1.09832
C         -7.23637         7.08792        -0.19848
C         -6.35039         7.89706         0.75304
C         -4.99738         7.22645         1.06612
C         -3.69610         8.00339         0.98768
C         -2.37847         7.26804         0.81036
C         -1.11936         8.05242         0.48897
C          0.13387         7.28359         0.15855
C          1.39037         8.00802        -0.19228
C          2.54338         7.33865        -0.92411
C          3.84741         8.06882        -0.86781
C          5.16752         7.31256        -0.94718
C          6.30610         7.93269        -0.18021
C          7.20655         7.03911         0.55866
C         -6.18839         9.30120         0.22244
C         -5.03904         9.97497         0.10177
C         -3.69165         9.52490         0.63066
C         -2.56959         9.89773        -0.30171
C         -1.20761         9.51928         0.00225
C          0.00329        10.11258        -0.73004
C          1.33884         9.49340        -0.32156
C          2.52974        10.12753        -0.25619
C          3.76235         9.29616         0.06892
C          5.06396        10.05171         0.17819
C          6.21694         9.36869         0.21872
C        -11.05740        -0.50032         1.40630
C        -10.01653        -1.37182         0.78673
C         -8.82555        -0.69140         0.13667
C         -7.53323        -1.44970        -0.12451
C         -6.25568        -0.71736        -0.52758
C         -5.07744        -1.46417        -1.12796
C         -3.77280        -0.70669        -1.05404
C         -2.67451        -1.50459        -0.31549
C         -1.37238        -0.71932        -0.04909
C         -0.10006        -1.46900         0.18953
C          1.17836        -0.80697        -0.31764
C          2.48513        -1.54185        -0.16612
C          3.78088        -0.78565        -0.08324
C          5.00460        -1.44337         0.49033
C          6.29501        -0.70011         0.32669
C          7.53961        -1.48566         0.03703
C          8.85231        -0.75772         0.04856
C          9.90059        -1.46592         0.92365
C         11.15828        -0.63489         1.09277
C         -9.84612        -2.75247         1.31079
C         -9.15727        -3.72114         0.63530
C         -7.56962        -2.84098        -0.56679
C         -6.41275        -3.69108        -0.89936
C         -5.08382        -3.00428        -1.20104
C         -3.69898        -3.66600        -1.34675
C         -2.45879        -2.89013        -0.96930
C         -1.16054        -3.64337        -0.68276
C         -0.21464        -3.00078         0.32631
C          1.15685        -3.65074         0.48246
C          2.45010        -2.91315         0.43434
C          3.73922        -3.69851         0.36026
C          5.00629        -2.95843         0.65469
C          6.30159        -3.70148         0.80018
C          7.53092        -3.00435         0.22370
C          8.87768        -3.65278         0.43031
C         10.02005        -2.92838         0.52132
C         -8.66131        -4.99904         1.06243
C         -7.63056        -5.70926         0.43317
C         -6.84127        -5.19943        -0.75944
C         -4.43305        -5.94351        -2.57040
C         -3.54802        -5.15235        -1.59418
C         -2.36400        -5.92358        -1.04516
C         -1.10844        -5.14211        -0.73887
C          0.04915        -5.90028        -0.10997
C          1.18079        -5.15541         0.53121
C          2.45168        -5.90214         0.79618
C          3.75354        -5.17575         0.55063
C          5.00951        -6.00704         0.86081
C          6.42209        -5.25917         0.84913
C          7.46422        -5.78781        -0.13201
C          8.47188        -4.74588        -0.54638
C         -7.43221        -7.08770         0.73508
C         -6.25819        -7.81126         0.41389
C         -4.98555        -7.07940         0.30883
C         -3.69119        -7.88438         0.30661
C         -2.48737        -7.27803        -0.39865
C         -1.36163        -8.00190         0.33482
C         -0.01431        -7.35864         0.20940
C          1.19463        -8.16066         0.63770
C          2.49004        -7.41221         0.67912
C          3.66432        -8.00939        -0.02616
C          4.93332        -7.19127        -0.11623
C          6.17583        -7.85312        -0.62653
C          7.44930        -7.06800        -0.58000
C         -6.22333        -9.22190         0.33533
C         -5.05360        -9.95643         0.07130
C         -3.79020        -9.36043         0.00916
C         -2.57058       -10.08507        -0.17900
C         -1.33250        -9.46656        -0.05168
C         -0.05531       -10.14116        -0.16471
C          1.15497        -9.56043         0.13491
C          2.47735       -10.32637         0.17661
C          3.66282        -9.47988        -0.32911
C          5.00725       -10.07147        -0.57074
C          6.12553        -9.32909        -0.75427
O         -4.34570         7.76834         2.25639
O         -7.07744         5.16417         2.08672
O         -4.21128         5.00443         1.98692
O         -0.93023         9.15930         1.38515
O          3.25222        -8.51787        -1.34098
O         -5.97262        -3.40239        -2.28054
O          3.46550         0.99719        -1.67919
O          5.28802        -7.03171        -1.50410
O         -0.98341         5.83964        -1.50508
O          5.67654        -0.89971         1.64723
O          0.38712        -6.90713        -1.12618
O         -6.45482        -1.15793         0.84223
O         -3.25193        -7.78327         1.72819
O         -1.51243         1.10328        -1.76842
O          1.19205         7.44472         1.14615
O          4.23389         3.80638         0.93858
O          8.25777         3.58537        -1.62004
O         -2.03557         6.29326         1.84114
O         -3.50061        -5.32964        -3.11694
O          7.11248         1.38663         1.29235
O         -2.87887        -2.95042        -2.33701
O          0.94275        -0.20974        -1.63509
O          5.60708        -3.24761         1.96746
O         -0.78405         3.38471         1.19295
O         -7.33861         1.08771        -1.78681
O          3.37709        -1.49240        -1.30238
O          7.08243        -5.54404         2.05072
O         -0.58030        -4.29316        -1.82310
O          1.94164        -8.04143         1.88901
O         -4.44174         1.48503        -2.07543
O         -4.38688        -1.02727        -2.32428
O         -4.92039        -5.84613         0.37697
O         -6.74845        -5.90171        -1.74158
O          7.51353         4.93955        -1.83536
O          3.02839         8.11279        -2.06287
O         -7.62144         3.83165        -1.47433
O         -8.76788        -3.44655        -0.74280
O          4.55613         5.28297        -2.33097
O         -1.77496        -7.91924         1.74074
O          1.75614        -3.04203         1.69526
O         -5.56736         2.64818         1.33804
O         -9.93322        -1.15647        -0.66795
O         -8.63673         1.20618         1.73832
O          9.91128         1.34634        -0.87859
O          1.60646         5.35238        -2.07879
O          8.30128        -1.25795        -1.19478
O         -3.30455         3.77762        -1.48757
O          1.56316        -5.54999         1.88807
O          3.79801        -4.58791        -0.79140
O          6.28167         7.89135        -1.67334
O          7.58286        -3.68730        -1.14126
O         -2.27285        -7.18770        -1.80522
O         -0.84440        -0.88974         1.29950
O         -3.46503        10.22397         1.87523
H         -3.90170         9.69219         2.58137
O          2.17403         3.08344        -2.17168
H          2.80169         2.51668        -2.67342
O          4.56962         1.38329         1.74957
H          5.37626         1.53895         2.28977
O          5.91829         3.00935        -1.98800
H          6.44599         3.51514        -2.64861
O         -3.27283        -1.75546         0.97619
H         -2.53943        -2.00287         1.59512
O         -7.08976         7.93922         1.98995
H         -7.17570         6.98764         2.29075
O          2.71227       -10.71296         1.53722
H          2.59994        -9.90815         2.09774
O          0.31543         1.17410         1.51335
H         -0.28261         1.73855         2.05282
O         -0.20416         9.86276        -2.12257
H          0.62485        10.03969        -2.61358
O          9.26591        -1.42547         2.24170
H          9.75168        -2.02927         2.84168
O          4.83712        -6.55977         2.16277
H          5.67922        -6.31804         2.65260
O          3.56949         8.69259         1.38283
H          3.21187         9.36678         1.99716
O          1.75670         3.93387         1.31305
H          0.95489         4.05175         1.87055
O         -0.89118        -3.28535         1.57827
H         -0.26499        -3.06281         2.30591
H         12.07671        -1.15914         1.40181
H         12.05382         1.26217         1.39093
H         10.29242         3.30801         1.89567
H          8.83456         5.40995         1.85767
H          7.84922         7.49307         1.32862
H          7.16870         9.88570         0.41625
H          5.04058        11.12943         0.40018
H          2.61838        11.21712        -0.39186
H          0.03662        11.22384        -0.53870
H         -2.78195        10.37874        -1.26799
H         -5.06743        11.00040        -0.29936
H         -7.11938         9.78693        -0.11152
H         -7.97268         7.64799        -0.79833
H         -9.15926         5.38540        -1.30451
H        -10.89171         3.55913         0.69902
H        -11.86704         1.42145         1.78437
H        -11.93855        -1.01017         1.82443
H        -10.11849        -2.92777         2.36033
H         -9.16992        -5.47923         1.91355
H         -8.26036        -7.63402         1.21592
H         -7.17229        -9.77048         0.42772
H         -5.13532       -11.04501        -0.06039
H         -2.62854       -11.16191        -0.39929
H         -0.07413       -11.19582        -0.48336
H          2.39710       -11.26285        -0.43071
H          5.08041       -11.16929        -0.60520
H          7.08315        -9.84835        -0.91646
H          8.28043        -7.43289        -1.20764
H          9.24194        -5.11543        -1.26169
H         11.00694        -3.37225         0.31900
