         349
 CSIRO Nanostructure Databank - Neutral Graphene Oxide Data Set
C          1.22949         3.90930         0.94597
C          0.30509         4.78950         1.43803
C          0.70388         6.86088         0.14620
C          0.25285         6.23572         1.26598
C          0.76204         8.30459        -0.28507
C          0.36640         9.27923         0.78669
C          1.17965        11.06522        -0.62911
C          0.50097        10.62215         0.52278
C          1.12383        12.51005        -1.05573
C         -0.13096        13.16382        -0.55510
C          1.11797        14.98325         0.51341
C         -0.11783        14.31349         0.13673
C          1.09007        16.26039         1.03622
C         -0.13803        17.00680         1.17147
C          1.11835        19.10016         1.31062
C         -0.12700        18.35941         1.31028
C          1.06809        20.61569         1.37239
C         -0.06670        21.19510         0.57290
C          1.19818        23.25241         0.16524
C         -0.00669        22.44467         0.07823
C          1.17351        24.63942        -0.21985
C         -0.03524        25.32383        -0.51792
C          1.17223        27.39963        -0.89298
C         -0.03794        26.66694        -0.84833
C          1.19290        28.82143        -1.23883
C          3.65235         3.64118         0.29875
C          2.44156         4.30947         0.25065
C          3.53322         6.43038        -0.41340
C          2.43185         5.60562        -0.37640
C          3.41980         7.86704        -0.84401
C          2.15253         8.69894        -0.88284
C          3.60496        10.87063        -0.86450
C          2.26635        10.21881        -1.23409
C          3.60855        12.29624        -0.53135
C          2.39276        13.05600        -0.41891
C          3.61114        14.92836         0.61535
C          2.38619        14.29167         0.27897
C          3.63549        16.28836         1.11654
C          2.33282        16.92094         1.57870
C          3.55822        19.17182         1.68385
C          2.30478        18.43013         1.39327
C          3.56955        20.62225         1.35066
C          2.39942        21.26400         1.03019
C          3.64763        23.34850         0.41973
C          2.39984        22.64155         0.56025
C          3.64551        24.70340         0.00760
C          2.39657        25.37174        -0.25855
C          3.62833        27.57671        -0.50015
C          2.37569        26.74520        -0.59593
C          3.64162        28.67697        -1.56144
C          2.34710        29.45679        -1.52300
C          6.03986         3.59546        -0.30282
C          4.83993         4.29401        -0.17697
C          5.97578         6.40451        -0.75187
C          4.81476         5.74124        -0.39895
C          6.00328         7.88294        -0.76654
C          4.70946         8.63740        -0.76620
C          6.06780        10.73154        -0.68534
C          4.76260        10.12276        -0.90049
C          6.05866        12.11700        -0.17437
C          4.81291        12.90377        -0.16752
C          6.07656        14.91717         0.51717
C          4.85630        14.26745         0.30497
C          6.11072        16.21685         1.19960
C          4.82725        16.95087         1.34908
C          6.15586        19.14524         1.78424
C          4.84309        18.38782         1.78200
C          6.16413        20.63393         1.52741
C          4.85260        21.36608         1.33503
C          6.11871        23.33349         0.46412
C          4.88581        22.69729         0.70047
C          6.11828        24.69202         0.00434
C          4.88914        25.39091        -0.16297
C          6.09922        27.43620        -0.77246
C          4.90327        26.76950        -0.53215
C          6.09400        28.86095        -1.13252
C          4.89606        29.49574        -1.43386
C          8.47248         3.59157        -0.63253
C          7.24270         4.22132        -0.74142
C          8.45451         6.37494        -1.46980
C          7.18139         5.64783        -1.13374
C          8.49054         7.81876        -1.03637
C          7.21969         8.61396        -1.33907
C          8.55433        10.69806        -0.75306
C          7.26518        10.04619        -0.85003
C          8.56907        12.17555        -0.66028
C          7.36074        12.85474        -0.10353
C          8.63818        14.88203         0.54626
C          7.34687        14.37523        -0.09838
C          8.71353        16.31471         0.90813
C          7.44469        16.92323         1.39816
C          8.65939        19.14575         1.21718
C          7.44391        18.40880         1.61511
C          8.64385        20.53958         1.05618
C          7.40260        21.27039         1.02287
C          8.61031        23.29146         0.31629
C          7.38280        22.62689         0.62836
C          8.59060        24.66718        -0.11058
C          7.34926        25.36704        -0.25213
C          8.56868        27.42665        -0.86051
C          7.34509        26.73880        -0.64410
C          8.57091        28.86309        -1.13339
C          7.33108        29.54929        -1.20913
C         10.89130         3.55287        -0.62311
C          9.72570         4.23578        -0.89003
C         11.04553         6.37710        -1.39088
C          9.75272         5.56627        -1.64710
C         11.05883         7.80475        -0.99745
C          9.78753         8.52985        -0.78800
C         11.03587        10.71655        -0.64087
C          9.77056        10.01852        -0.76438
C         11.10914        12.08866        -0.53999
C          9.88388        12.89455        -0.56050
C         11.20195        14.93316         0.27279
C          9.91990        14.18615         0.20826
C         11.20188        16.31091         0.70197
C          9.92548        16.95717         1.00692
C         11.20544        19.13382         1.53791
C          9.92286        18.39118         1.39753
C         11.15123        20.62811         1.34455
C          9.87956        21.26926         0.94043
C         11.11213        23.30737         0.28484
C          9.86612        22.61674         0.53058
C         11.11779        24.66939        -0.36369
C          9.78840        25.36408        -0.37261
C         11.05341        27.45583        -0.82297
C          9.78621        26.72514        -0.73667
C         11.05843        28.78816        -1.53649
C          9.76386        29.52688        -1.38741
C         13.33914         3.40272        -0.58110
C         12.20495         4.12304        -0.80059
C         13.50991         6.28114        -0.60842
C         12.29609         5.57667        -1.10358
C         13.50397         7.75045        -0.66113
C         12.28520         8.45424        -0.72671
C         13.54571        10.62176        -0.04176
C         12.25575         9.90173        -0.35670
C         13.62096        12.09308        -0.16984
C         12.40507        12.86567        -0.59530
C         13.64858        14.93532         0.13528
C         12.38285        14.26372        -0.00892
C         13.65682        16.33738         0.48748
C         12.42764        17.00202         0.78805
C         13.71989        19.18310         0.94725
C         12.54213        18.37239         1.46183
C         13.69595        20.60540         0.86150
C         12.43931        21.36233         1.05511
C         13.58850        23.43773         0.22661
C         12.35220        22.71970         0.48252
C         13.55139        24.85810         0.05975
C         12.20933        25.53563         0.28231
C         13.38029        27.78231         0.07242
C         12.17799        26.94346        -0.26062
C         13.35868        29.15439        -0.56633
C         12.23431        29.65105        -1.17405
C         15.72082         3.33962         0.18661
C         14.73349         3.92908        -0.82669
C         16.07504         6.23220        -0.82311
C         14.79858         5.47514        -0.62022
C         15.97917         7.72135        -1.14411
C         14.81560         8.40613        -0.41780
C         16.06964        10.66991        -0.36092
C         14.84526         9.87404        -0.12877
C         16.08843        12.02648        -0.15371
C         14.82782        12.77111        -0.07081
C         16.16569        14.87585         0.37646
C         14.85035        14.20913         0.02067
C         16.14626        16.37846         0.17802
C         14.89497        17.05886         0.50316
C         16.24742        19.14561         0.79250
C         14.89820        18.46699         0.68444
C         16.15579        20.66968         0.71514
C         14.85226        21.34199         0.54195
C         16.05025        23.47413        -0.05233
C         14.82821        22.74717         0.26244
C         15.99468        24.91893        -0.25485
C         14.71429        25.59937        -0.14678
C         15.82715        27.79129        -0.32660
C         14.68266        27.04924        -0.19790
C         15.79114        29.25114        -0.27151
C         14.56167        29.91167        -0.46292
C         18.18483         3.49552         0.91317
C         17.04489         3.60995         0.03801
C         18.58888         6.25854        -0.76624
C         17.27428         5.62081        -0.98959
C         18.62814         7.77105        -0.82281
C         17.31809         8.49627        -1.04656
C         18.57978        10.63555        -0.36822
C         17.31304         9.94924        -0.70333
C         18.57792        12.02506        -0.38287
C         17.34324        12.77251        -0.29074
C         18.56352        14.86976        -0.75354
C         17.34701        14.15265        -0.22429
C         18.52752        16.39503        -0.58488
C         17.28153        17.07446        -0.16776
C         18.61618        19.27517         0.00962
C         17.26519        18.59920        -0.22685
C         18.64460        20.68178         0.13163
C         17.38935        21.43363         0.36726
C         18.51503        23.49277        -0.51618
C         17.27425        22.81417        -0.12391
C         18.46321        25.01502        -0.56821
C         17.15906        25.65981        -0.39141
C         18.32052        27.87099        -0.03216
C         17.14339        27.14486        -0.64789
C         18.22535        29.27997         0.16660
C         16.98623        29.95460        -0.05252
C         19.29507         4.31509         0.83221
C         20.69120         6.27345         0.48294
C         19.53812         5.54936         0.12696
C         20.81382         7.65717         0.31137
C         19.75150         8.46497        -0.14876
C         20.88657        10.62990         0.46283
C         19.75803         9.88233        -0.05946
C         20.94707        11.97652         0.35186
C         19.91524        12.71973        -0.45610
C         20.98776        14.95329        -0.01392
C         19.83533        14.21234        -0.25421
C         21.02667        16.34152        -0.06945
C         19.84122        17.13259        -0.37651
C         21.04897        19.29434         0.01178
C         19.83617        18.58226        -0.04516
C         21.05843        20.68445         0.02521
C         19.85161        21.39542         0.06534
C         20.38775        23.66684         1.08552
C         19.88972        22.89811        -0.13518
C         20.32558        25.00429         1.07717
C         19.76075        25.74488        -0.14516
C         20.66270        27.96061         0.59253
C         19.54066        27.21958         0.17661
C         20.56871        29.33827         0.81990
C         19.36682        29.99968         0.60067
O         12.02398         6.03926        -2.46001
O         19.20949        17.00049        -1.74197
O          7.52914         6.04869        -2.54306
O         12.67959        10.14443         1.03959
O         11.87714        21.31990         2.41873
O         15.06164         8.87039         0.94292
O          5.44048         8.36453         0.49738
O         20.70910        25.72826        -1.18764
O         18.51705        24.19967        -1.78512
O         16.93639        21.31003         1.79243
O          9.12878        12.88690        -1.83123
O         14.12852         5.80114         0.63867
O         17.39557         4.24193        -1.18250
O          6.87550        16.16510         2.49983
O          1.19578         6.03538        -0.87838
O         17.37742         9.47813        -2.13477
O          6.96649        18.80591         2.95219
O          9.26847        14.00291         1.52288
O          5.54901        21.37211         2.63820
O         19.11336         6.95065        -1.93971
O          6.83998        12.25413         1.09431
O         10.48619        18.70065         2.74401
O          8.96345         7.94003         0.33138
O          2.60673         7.96475        -2.06859
O          4.08746        18.73682         3.00120
O          2.19670        10.31977        -2.68020
H          2.53337         9.46245        -3.04155
O         16.75074        18.77451         2.09634
H         16.93497        19.61185         2.58540
O         16.32085        14.68900         1.82975
H         15.62230        15.21864         2.27216
O         16.82726        18.98507        -1.55274
H         17.49146        18.63864        -2.18861
O         17.31318        27.27993        -2.10375
H         18.11010        26.76166        -2.35508
O          2.28773        16.68832         3.02378
H          2.99402        17.25545         3.42356
O         13.32163        28.02654         1.51272
H         12.93559        27.21982         1.93347
O         11.52451        24.50194        -1.75610
H         10.80331        24.03574        -2.22786
O          3.59427        28.25078         0.79221
H          3.55663        27.56456         1.49082
O          1.14912        12.71353        -2.47914
H          1.61041        11.94973        -2.90079
O          7.34579        14.85648        -1.47294
H          8.00634        14.31201        -1.97524
O         12.92696        18.05249         2.82866
H         12.09220        18.02509         3.35685
O         15.58538         7.72702        -2.54121
H         16.15744         8.38217        -3.00823
O         18.53480        14.61129        -2.20818
H         18.99109        15.38716        -2.62016
O         20.34844        12.59897        -1.86224
H         19.70123        13.13962        -2.38344
O          3.71080        28.01170        -2.86151
H          3.70745        28.70293        -3.55588
O          7.04792         8.67131        -2.77350
H          7.10207         7.74231        -3.11441
O         11.20595        28.48297        -2.97531
H         11.95833        27.86056        -3.07073
O         20.81957        23.10261        -1.20653
H         20.86346        24.09099        -1.39741
O          9.75556         5.17819        -3.03612
H         10.69928         5.08889        -3.31066
O         12.59307        13.07697        -2.05434
H         13.40166        13.62221        -2.16843
O          0.80526        20.96234         2.76883
H          1.54368        20.60596         3.30807
O         -0.18165         8.44217        -1.38078
H          0.09133         7.79448        -2.06680
O         11.99042        25.60934         1.71816
H         12.05979        24.70127         2.08663
O         15.05706         3.58047        -2.17707
H         16.02553         3.71556        -2.30139
H          1.15261         2.85545         1.25546
H         -0.46342         4.37573         2.11093
H         -0.23280         6.81669         2.06308
H         -0.20608         8.93329         1.65766
H          0.00515        11.36268         1.17063
H         -1.08420        12.69786        -0.84310
H         -1.07477        14.76360         0.43236
H         -1.10626        16.49193         1.11278
H         -1.07501        18.90232         1.41520
H         -0.99227        20.61467         0.45811
H         -0.87790        22.85225        -0.45308
H         -0.99375        24.79034        -0.47127
H         -0.98670        27.17564        -1.07187
H          0.23175        29.35633        -1.28058
H          3.72537         2.62925         0.72287
H          2.34895        30.51830        -1.81589
H          6.06984         2.52756        -0.04000
H          4.90046        30.55195        -1.74763
H          8.50220         2.56239        -0.24146
H          7.33099        30.62470        -1.44309
H         10.83136         2.52270        -0.23881
H          9.74989        30.60757        -1.59553
H         13.24708         2.33677        -0.32078
H         12.25529        30.67075        -1.59216
H         15.33668         2.90989         1.12224
H         14.54626        30.99862        -0.63789
H         18.17509         2.72214         1.69545
H         16.95416        31.05046         0.04673
H         20.10500         4.06332         1.53813
H         21.48495         5.75220         1.03964
H         21.72484         8.13687         0.69393
H         21.69818        10.09116         0.97201
H         21.81809        12.51524         0.75108
H         21.91562        14.42800         0.25554
H         21.94085        16.85376         0.25667
H         22.00587        18.75856        -0.04399
H         22.00730        21.23275        -0.03674
H         20.84513        23.12124         1.92562
H         20.73694        25.59054         1.91455
H         21.62840        27.44977         0.70708
H         21.45509        29.90176         1.14294
H         19.29189        31.08610         0.75293
