         324
 CSIRO Nanostructure Databank - Neutral Graphene Oxide Data Set
C         30.37425        57.03270        -0.67288
C         30.36934        58.43259        -0.81718
C         29.16967        59.15283        -1.09795
C         30.40828        61.23501        -1.26377
C         29.19897        60.52485        -1.30279
C         32.86434        52.77537        -0.36970
C         32.83099        54.21118        -0.38121
C         31.61738        54.90871        -0.45477
C         32.80623        57.07123        -0.32034
C         31.58310        56.33038        -0.48205
C         32.79075        58.48179        -0.36692
C         31.60108        59.15994        -0.68726
C         32.86259        61.25639        -1.03190
C         31.62083        60.58023        -0.96176
C         35.33453        48.55656         0.54810
C         35.24920        49.89096         0.11529
C         34.04633        50.62626        -0.00499
C         35.30925        52.76898        -0.13541
C         34.04887        52.03490        -0.24125
C         35.34351        54.23104        -0.52887
C         34.05525        54.96549        -0.30600
C         35.30377        57.10421        -0.15423
C         34.04894        56.35285        -0.22962
C         35.29992        58.47830        -0.13443
C         34.02050        59.27522         0.01198
C         35.29274        61.28990        -0.85360
C         34.08354        60.63332        -0.67728
C         37.80802        44.28105         0.98694
C         37.80454        45.69616         0.93253
C         36.59051        46.44994         0.76346
C         37.80242        48.52704         1.18105
C         36.55877        47.85030         0.85433
C         37.87644        49.86767         1.59915
C         36.47151        50.64659        -0.27449
C         37.71398        52.81242         0.49024
C         36.47888        52.09055         0.07995
C         37.87756        54.22548        -0.08556
C         36.56744        54.98827        -0.09220
C         37.81898        57.11113        -0.00723
C         36.55992        56.35995        -0.04584
C         37.83523        58.51348        -0.14022
C         36.56162        59.23529        -0.01961
C         37.85607        61.33072        -0.74535
C         36.56637        60.73253        -0.39488
C         40.19162        40.15125         0.05207
C         40.20269        41.36878         0.66008
C         38.94604        42.04189         1.17532
C         40.22358        44.25356         1.28145
C         38.99886        43.56080         1.12344
C         40.23273        45.67169         1.24909
C         39.04612        46.37877         1.03253
C         40.32398        48.57190         1.15973
C         39.06964        47.85480         0.72183
C         40.29720        49.99543         1.17850
C         39.02601        50.65332         1.26802
C         40.25725        52.78511         0.66417
C         38.93002        52.11737         1.04979
C         40.26502        54.28537         0.68957
C         38.96426        55.03334         0.65667
C         40.25828        57.08438        -0.13601
C         39.04503        56.42498         0.08244
C         40.25917        58.46644        -0.41777
C         39.05518        59.20507        -0.33520
C         40.31461        61.31936        -0.74584
C         39.05664        60.64599        -0.60122
C         42.60162        36.06496        -1.42554
C         42.60600        37.41557        -1.02650
C         41.40157        38.12316        -0.73328
C         42.67136        40.12806        -0.15135
C         41.42017        39.44756        -0.28815
C         42.71769        41.44445         0.40782
C         41.48825        42.01297         0.98657
C         42.77669        44.22030         1.18278
C         41.50288        43.50424         1.36192
C         42.79109        45.66888         1.48944
C         41.49275        46.41614         1.50953
C         42.75306        48.60921         1.53130
C         41.53181        47.89643         1.35194
C         42.75066        50.04743         1.55383
C         41.51054        50.71487         1.35907
C         42.73179        52.96946         1.41365
C         41.43805        52.17914         1.39373
C         42.70415        54.31376         0.81558
C         41.48586        54.95598         0.54360
C         42.80915        57.01818        -0.20050
C         41.50960        56.24378        -0.29456
C         42.82350        58.40373        -0.73931
C         41.51545        59.15689        -0.79776
C         42.78174        61.30988        -0.73263
C         41.53930        60.64069        -0.74621
C         45.01251        33.35622        -2.37488
C         43.81295        34.01085        -2.10007
C         45.05970        36.06711        -1.61136
C         43.80875        35.37684        -1.71142
C         45.08436        37.43794        -1.22476
C         43.86174        38.10542        -0.92008
C         45.12804        40.16528        -0.49890
C         43.88776        39.46567        -0.51747
C         45.10293        41.61012        -0.23103
C         43.90254        42.18335         0.40917
C         45.26007        44.21354         1.05578
C         43.93878        43.55272         0.82822
C         45.27059        45.65732         1.44565
C         44.02621        46.45125         1.08682
C         45.20555        48.58514         1.66565
C         44.02397        47.90500         1.53010
C         45.22071        50.02928         2.12927
C         43.97255        50.79151         1.69561
C         45.20603        52.88236         1.22819
C         44.00617        52.20366         1.49932
C         45.19641        54.21819         0.59282
C         43.99162        55.09513         0.85590
C         45.27032        57.01210        -0.41921
C         43.97749        56.39131         0.07986
C         45.24924        58.51474        -0.30027
C         44.06823        59.18357        -0.53615
C         45.23644        61.34024        -0.48377
C         44.02826        60.63436        -0.59961
C         46.23538        34.02329        -2.27800
C         47.51579        36.09366        -1.79466
C         46.28429        35.38796        -1.89740
C         47.55609        37.44545        -1.43015
C         46.32584        38.13443        -1.14003
C         47.60597        40.24077        -0.75372
C         46.34167        39.51566        -0.79244
C         47.65235        41.58141        -0.43966
C         46.42084        42.34709        -0.19107
C         47.73426        44.28755         0.62420
C         46.52222        43.62335         0.55226
C         47.80340        45.69210         1.01464
C         46.56922        46.39027         1.46517
C         47.69757        48.63056         1.11882
C         46.51096        47.87126         1.60719
C         47.78904        50.05598         1.44755
C         46.55205        50.77765         1.85017
C         47.75308        52.90789         1.00060
C         46.50644        52.24465         1.44247
C         47.77736        54.22980         0.60921
C         46.50741        54.91461         0.29030
C         47.70680        57.08299         0.18576
C         46.52033        56.37391         0.12982
C         47.68771        58.51429        -0.02066
C         46.49759        59.21627        -0.17085
C         47.65952        61.39279        -0.06512
C         46.48746        60.68030        -0.25732
C         48.79559        38.15921        -1.33130
C         50.09551        40.20076        -0.86836
C         48.84844        39.51172        -1.00785
C         50.16984        41.56821        -0.59493
C         48.90404        42.39110        -0.66056
C         50.17874        44.30804         0.25724
C         48.96894        43.67424         0.13788
C         50.29366        45.65558         0.93893
C         48.97937        46.38861         0.93583
C         50.23581        48.61175         0.81323
C         48.97070        47.86353         0.84566
C         50.20320        49.99449         0.89030
C         48.99007        50.70767         1.24410
C         50.28717        52.92022         1.15048
C         49.00831        52.19170         1.33622
C         50.30092        54.26031         0.46108
C         48.99841        55.00584         0.52636
C         50.21976        57.15519         0.42775
C         48.97986        56.38233         0.37313
C         50.19643        58.51856         0.25760
C         48.97932        59.25632        -0.22152
C         50.20242        61.41396        -0.09271
C         48.93685        60.70214         0.34669
C         51.38873        42.25884        -0.43802
C         52.62441        44.36568        -0.10697
C         51.42078        43.63953        -0.12042
C         52.67163        45.77329         0.10951
C         51.46583        46.48394         0.46171
C         52.68971        48.61443         0.33701
C         51.45888        47.87282         0.53082
C         52.70093        50.00532         0.41933
C         51.40844        50.77094         0.40101
C         52.72887        52.85485         0.88890
C         51.53782        52.16304         0.93054
C         52.71518        54.32129         1.02932
C         51.53927        55.03534         0.85261
C         52.68103        57.19650         0.71226
C         51.50149        56.47509         0.72400
C         52.67239        58.61381         0.20318
C         51.37890        59.38232         0.67495
C         52.67633        61.45241        -0.13170
C         51.39475        60.77717         0.04150
C         53.87562        46.48798        -0.04233
C         55.12541        48.62060        -0.03602
C         53.92270        47.89470         0.10157
C         55.16921        50.02188         0.12815
C         53.93158        50.73890         0.39703
C         55.25342        52.79893         0.76708
C         53.95567        52.11759         0.67242
C         55.28757        54.31113         0.98563
C         53.98808        55.03984         1.21585
C         55.21144        57.19688         0.53145
C         53.96884        56.55092         1.02569
C         55.23765        58.65898         0.52765
C         53.87819        59.42804         0.54134
C         55.16234        61.61470         0.36598
C         53.87084        60.84929         0.13500
C         56.37341        50.74522        -0.04357
C         57.59799        52.89376        -0.03322
C         56.44128        52.13547         0.18440
C         57.59934        54.32030         0.00998
C         56.41907        55.03891         0.39185
C         57.46436        57.12235        -0.50134
C         56.32831        56.44390         0.16514
C         57.47698        58.65024        -0.57497
C         56.37546        59.40404         0.03136
C         57.57940        61.46485        -0.38876
C         56.40449        60.81457        -0.00678
C         58.76365        55.02728        -0.39720
C         59.90813        57.14622        -0.95979
C         58.76355        56.42245        -0.60292
C         59.92968        58.57734        -1.03974
C         58.75831        59.33180        -0.76287
C         60.01478        61.41445        -0.93290
C         58.79050        60.74780        -0.67752
C         61.13530        59.28570        -1.28641
C         61.16118        60.67928        -1.24094
O         41.50918        55.75016        -1.60892
O         36.52895        60.25820         1.02148
O         54.57329        59.19277         1.75719
O         41.57145        42.45071         2.38047
O         54.04504        55.94520         2.36004
O         42.17498        46.00977         2.75850
O         48.06010        48.31010        -0.25893
O         42.14848        58.61812        -2.01281
O         37.97750        52.78434         1.96410
O         55.58315        53.39268         2.07987
O         45.54858        42.43779        -1.38494
O         57.06846        57.80697        -1.72905
O         49.72976        52.80095         2.48799
O         45.24267        44.65933         2.48633
O         46.73853        51.79717         2.86633
O         51.27872        59.50840         2.04184
O         45.70857        54.22143        -0.77294
O         37.37251        50.17946        -0.97751
O         41.85817        52.83150         2.61224
O         46.79192        47.04272         2.78293
O         55.21865        61.94848         1.76294
H         55.03407        61.12350         2.26867
O         48.89923        60.66050         1.78852
H         49.77554        60.27327         2.10772
O         50.47889        53.89214        -0.96271
H         50.39184        54.70770        -1.50159
O         49.16114        59.37015        -1.67621
H         48.31423        59.68796        -2.05743
O         51.12680        51.00126        -1.04459
H         50.82173        51.93462        -1.16120
O         38.30828        54.07256        -1.46109
H         37.50208        53.99742        -2.02514
O         35.49442        54.12665        -2.01074
H         34.67620        53.70806        -2.35766
O         50.59239        45.38623         2.35661
H         49.79528        44.97948         2.75917
O         38.55019        55.30140         2.02770
H         38.45563        54.43879         2.49664
O         44.03904        46.47920        -0.37438
H         43.35950        47.11475        -0.68506
O         45.32534        56.73832        -1.85869
H         45.22409        55.76311        -1.96574
O         36.82135        50.43113         2.22821
H         37.03578        51.37873         2.43300
O         39.08001        47.92650        -0.75296
H         38.55592        48.72363        -1.01779
O         52.60122        58.58438        -1.24385
H         51.67063        58.40675        -1.50728
O         45.11332        49.94652         3.58152
H         45.47452        50.79100         3.94040
O         37.78947        41.54797         0.50210
H         37.84606        41.80340        -0.44111
O         40.45228        52.38757        -0.72897
H         39.91860        52.99718        -1.29885
O         44.13756        55.45731         2.27312
H         43.30511        55.87831         2.57599
O         48.80078        42.84293        -2.05953
H         48.60980        42.05625        -2.61324
O         33.89312        59.54872         1.44421
H         34.74457        59.96825         1.72016
H         29.43091        56.47371        -0.76180
H         28.21995        58.60300        -1.16551
H         30.41701        62.31366        -1.47643
H         28.26631        61.06176        -1.52638
H         31.90396        52.23862        -0.39632
H         30.67342        54.34933        -0.53515
H         32.88117        62.29975        -1.38348
H         34.39511        47.98475         0.63387
H         33.08132        50.11983         0.15093
H         35.30813        62.25880        -1.37726
H         36.86013        43.72999         0.89724
H         35.66106        45.90411         0.54116
H         37.86394        62.36633        -1.11773
H         39.23013        39.65265        -0.14441
H         38.83665        41.74776         2.25663
H         40.31248        62.41869        -0.80680
H         41.64446        35.52925        -1.51346
H         40.43934        37.59925        -0.83442
H         42.78532        62.41097        -0.75051
H         44.99592        32.29833        -2.67274
H         42.85847        33.47135        -2.18100
H         45.22457        62.43988        -0.53547
H         47.17182        33.49137        -2.49901
H         48.45481        35.56391        -2.01417
H         47.62363        62.49374        -0.04004
H         49.73206        37.61425        -1.52394
H         51.02575        39.61762        -0.95377
H         50.15165        62.45170        -0.46250
H         52.33854        41.71593        -0.56249
H         53.55952        43.84562        -0.36580
H         52.65819        62.52855        -0.37105
H         54.80111        45.94057        -0.27661
H         56.05664        48.07905        -0.26053
H         55.15817        62.57687        -0.20574
H         57.27758        50.20989        -0.37045
H         58.51322        52.38370        -0.36965
H         57.59534        62.56393        -0.43381
H         59.68442        54.45888        -0.59669
H         60.85648        56.60439        -1.09291
H         60.05432        62.51162        -0.88792
H         62.05474        58.72396        -1.50346
H         62.10424        61.20814        -1.43842
