         424
 CSIRO Nanostructure Databank - Neutral Graphene Oxide Data Set
C          1.40136         2.05199        -1.25742
C          1.34902         3.43437        -1.12859
C          2.63831         1.39985        -1.33874
C          2.53055         4.20215        -1.03445
C          1.26823         6.36526        -1.05385
C          1.22702         7.74340        -1.02558
C          2.49338         5.65522        -0.94236
C          2.40800         8.51337        -0.86752
C          1.17619        10.70019        -1.03958
C          1.17562        12.07886        -1.05334
C          2.37984         9.95551        -0.88374
C          2.38250        12.82837        -0.95366
C          1.20056        15.03153        -0.85719
C          1.22015        16.39856        -0.67423
C          2.40320        14.27019        -0.92372
C          2.44727        17.10256        -0.55237
C          2.47404        18.49490        -0.23526
C          3.82437         2.12703        -1.24673
C          3.78771         3.53368        -1.05676
C          5.13060         1.40269        -1.44938
C          5.01024         4.27285        -0.83107
C          3.68948         6.38845        -0.76771
C          3.64916         7.82164        -0.70830
C          4.95742         5.69726        -0.65164
C          4.84784         8.56340        -0.49163
C          3.59713        10.67826        -0.75986
C          3.60335        12.10611        -0.83522
C          4.82092         9.97715        -0.51409
C          4.85184        12.80648        -0.84899
C          3.65530        14.95924        -0.90517
C          3.67616        16.39534        -0.71872
C          4.86697        14.21663        -0.94758
C          4.89168        17.10647        -0.57941
C          3.66044        19.15508        -0.02870
C          4.91232        18.47509        -0.18265
C          6.33912         2.17411        -0.98147
C          6.24675         3.58422        -0.73070
C          7.54730         1.51780        -0.87720
C          7.44370         4.28945        -0.36797
C          6.13025         6.42053        -0.36409
C          6.10022         7.86327        -0.24654
C          7.38685         5.73418        -0.15445
C          7.24365         8.56375         0.09144
C          6.04050        10.72106        -0.38940
C          6.07587        12.07213        -0.67654
C          7.24373        10.05743         0.22166
C          7.39279        12.73137        -1.01367
C          6.16115        14.92049        -1.05431
C          6.16687        16.44720        -0.86687
C          7.41325        14.21461        -0.78290
C          7.41879        17.08053        -0.45789
C          6.14359        19.13962         0.02512
C          7.39368        18.47147        -0.08010
C          8.74529         2.20674        -0.50719
C          8.65388         3.60934        -0.24330
C          9.98179         1.53060        -0.43369
C          9.92585         4.38847        -0.01275
C          8.50286         6.41842         0.28442
C          8.45864         7.87201         0.63403
C          9.70958         5.67259         0.79488
C          9.76507         8.56394         0.29269
C          8.56472        10.67217        -0.19460
C          8.61647        12.00609        -0.52675
C          9.77836         9.89477        -0.05382
C          9.87252        12.73733        -0.49588
C          8.60878        14.90104        -0.61620
C          8.62023        16.35128        -0.47384
C          9.85397        14.17206        -0.47264
C          9.85893        17.03668        -0.29669
C          8.61466        19.13949         0.12916
C          9.86134        18.47561        -0.06529
C         11.15735         2.15000         0.06025
C         11.03649         3.54009         0.58137
C         12.38077         1.50122         0.13019
C         12.22020         4.23906         1.16416
C         10.99630         6.47186         0.76095
C         11.00538         7.81101         0.45858
C         12.23951         5.77720         1.30318
C         12.28210         8.53047         0.31941
C         11.05065        10.53284        -0.56559
C         11.07583        12.03410        -0.36868
C         12.30429         9.83480        -0.09939
C         12.30915        12.73386        -0.19793
C         11.06599        14.87526        -0.29287
C         11.07825        16.31605        -0.27698
C         12.29434        14.16654        -0.13501
C         12.31993        17.01159        -0.20944
C         11.07112        19.16425        -0.03724
C         12.30781        18.48018        -0.54468
C         13.56148         2.10297         0.68595
C         13.52544         3.46873         1.37194
C         14.75061         1.42952         0.69462
C         14.76986         4.25307         1.02101
C         13.52164         6.41350         0.80765
C         13.52612         7.77393         0.49171
C         14.74423         5.66362         0.81279
C         14.78063         8.45870         0.30501
C         13.58932        10.56520        -0.40801
C         13.53758        12.04101        -0.07044
C         14.80854         9.87655         0.12411
C         14.72840        12.75185         0.20856
C         13.50763        14.88141         0.06318
C         13.51691        16.31882         0.00762
C         14.72168        14.18188         0.27120
C         14.76712        17.02473         0.14993
C         13.60352        19.16829        -0.25623
C         14.76421        18.46894        -0.03761
C         15.99422         2.05356         1.27457
C         15.97712         3.55421         1.03369
C         17.25259         1.39431         0.76684
C         17.21354         4.23686         0.89829
C         15.99022         6.33747         0.57837
C         15.99103         7.74577         0.38696
C         17.21828         5.60238         0.64848
C         17.28370         8.49339         0.15916
C         15.99568        10.62000         0.34793
C         15.96527        12.05236         0.40768
C         17.23093         9.94728         0.54282
C         17.14655        12.76751         0.73727
C         15.93402        14.90242         0.55362
C         15.95158        16.35369         0.46486
C         17.10014        14.19025         0.85349
C         17.21763        17.07575         0.61739
C         16.04622        19.11153        -0.13873
C         17.23925        18.46280         0.09790
C         18.46151         2.04711         0.79784
C         18.47056         3.48097         1.28290
C         19.70624         1.38938         0.57023
C         19.75070         4.20953         0.96983
C         18.52002         6.31235         0.35388
C         18.42642         7.75951         0.86051
C         19.75153         5.60829         0.86708
C         19.72921         8.51324         0.84007
C         18.42544        10.65554         0.77352
C         18.38768        12.06938         0.90815
C         19.69814         9.93614         0.89384
C         19.60842        12.82300         1.13348
C         18.25690        14.91073         1.48524
C         18.31948        16.38378         1.12543
C         19.58118        14.19208         1.29082
C         19.60400        17.02215         1.30515
C         18.44045        19.15277        -0.38102
C         19.65057        19.02100         0.24391
C         20.94574         2.05550         0.70122
C         20.96159         3.49717         0.89078
C         22.17502         1.38125         0.55135
C         22.19602         4.20688         0.85656
C         20.95865         6.33610         0.88454
C         20.94812         7.78777         0.91054
C         22.19664         5.63450         0.93466
C         22.17350         8.47396         1.06135
C         20.88605        10.66030         1.05730
C         20.88188        12.09256         1.12963
C         22.14811         9.92795         1.44581
C         22.08854        12.77476         1.18922
C         20.82623        14.95860         1.69808
C         20.82865        16.40247         1.21477
C         22.13755        14.22420         1.45170
C         22.01468        17.07221         0.50562
C         20.99241        19.38039        -0.09037
C         22.08649        18.60725         0.35180
C         23.41663         2.06988         0.58736
C         23.42825         3.50463         0.74454
C         24.64234         1.39261         0.43240
C         24.65832         4.21639         0.76894
C         23.42754         6.34878         0.96081
C         23.41101         7.78279         1.04790
C         24.66344         5.64739         0.90950
C         24.64418         8.49790         1.08804
C         23.41850        10.63692         1.09734
C         23.32903        12.07393         0.69265
C         24.63618         9.94539         1.06893
C         24.60783        12.84548         0.85242
C         23.38191        14.97859         1.07034
C         23.36056        16.43350         0.80593
C         24.59572        14.19547         0.72140
C         24.56566        17.09152         0.60251
C         23.35270        19.22093         0.29402
C         24.58267        18.53931         0.43400
C         25.87634         2.08762         0.44624
C         25.88888         3.51564         0.63561
C         27.10346         1.41835         0.25169
C         27.12324         4.22332         0.67997
C         25.89673         6.35625         0.96951
C         25.88718         7.80107         1.06677
C         27.12630         5.64483         0.86683
C         27.10120         8.51932         1.13826
C         25.88219        10.64323         1.00432
C         25.87621        12.12727         1.23418
C         27.11434         9.95524         1.08544
C         27.13203        12.82658         0.79455
C         25.81939        14.91859         0.23863
C         25.83434        16.39363         0.53643
C         27.11296        14.20453         0.53607
C         27.03238        17.07910         0.38754
C         25.80524        19.22087         0.36107
C         27.04633        18.53110         0.33953
C         28.32912         2.11418         0.28727
C         28.35688         3.52651         0.54794
C         29.55093         1.45840         0.00872
C         29.60961         4.20632         0.64464
C         28.37481         6.32451         0.95496
C         28.35646         7.76202         1.29530
C         29.59952         5.63705         0.85616
C         29.66314         8.51428         1.37452
C         28.34865        10.69671         1.07296
C         28.35595        12.10112         0.86726
C         29.66348        10.04377         1.44465
C         29.59178        12.81633         0.64229
C         28.31164        14.92136         0.33809
C         28.28581        16.36246         0.19335
C         29.55991        14.21485         0.36619
C         29.45989        17.06383        -0.06237
C         28.26198        19.20594         0.17524
C         29.48653        18.50459        -0.02115
C         30.79363         2.09551         0.11720
C         30.83787         3.48645         0.53142
C         31.92495         1.33217        -0.37520
C         32.07610         4.23043         0.65604
C         30.84496         6.37501         0.82884
C         30.87686         7.78903         0.94930
C         32.06828         5.67218         0.64159
C         32.07049         8.51286         0.70755
C         30.86707        10.67572         0.78272
C         30.82950        12.11580         0.56275
C         32.03275         9.95984         0.64330
C         31.98823        12.80672         0.16281
C         30.75433        14.90289         0.02160
C         30.68546        16.31460        -0.51597
C         31.95208        14.19582        -0.09097
C         31.97633        17.07865        -0.33530
C         30.70438        19.19282        -0.15253
C         31.95649        18.51152        -0.26388
C         33.23332         1.49528         0.04217
C         33.33029         3.61465         0.81665
C         34.40232         1.01148        -0.60430
C         34.55434         4.30232         0.58411
C         33.29078         6.39929         0.49326
C         33.28619         7.82305         0.45736
C         34.52794         5.70238         0.34330
C         34.52031         8.53107         0.17616
C         33.33617        10.71516         0.59135
C         33.22957        12.02067        -0.18535
C         34.54326         9.93138         0.13420
C         34.49912        12.79821         0.08643
C         33.18165        14.89888        -0.61807
C         33.18621        16.39561        -0.40676
C         34.45935        14.27519        -0.09547
C         34.42825        17.09364        -0.39367
C         33.17505        19.21090        -0.31758
C         34.41791        18.52907        -0.39488
C         35.68574         1.48699        -0.27914
C         35.78919         3.60809         0.45915
C         36.86249         1.28922        -1.00922
C         36.95069         4.20834        -0.05825
C         35.74771         6.38196         0.03730
C         35.73352         7.80509        -0.07400
C         36.95424         5.65004        -0.17046
C         36.92827         8.49858        -0.41626
C         35.74676        10.64032        -0.16341
C         35.77092        12.08192        -0.12973
C         36.93829         9.93323        -0.46153
C         36.94424        12.80376        -0.34708
C         35.72691        14.98326        -0.33240
C         35.69175        16.39904        -0.41027
C         36.93274        14.25741        -0.38567
C         36.92122        17.11589        -0.41642
C         35.64124        19.23095        -0.50961
C         36.89609        18.56765        -0.52330
C         38.05180         2.07217        -0.86937
C         38.10473         3.42684        -0.44670
C         39.23518         1.45195        -1.44915
C         39.38874         4.16287        -0.52040
C         38.14826         6.35913        -0.51690
C         38.11812         7.75577        -0.66459
C         39.39676         5.62676        -0.67470
C         39.30820         8.47457        -1.23980
C         38.16794        10.65684        -0.69852
C         38.18244        12.10603        -0.60617
C         39.35656         9.95337        -0.93799
C         39.36827        12.82891        -0.78232
C         38.15717        14.97573        -0.49955
C         38.13872        16.39294        -0.42351
C         39.40021        14.25707        -0.64605
C         39.41664        17.10340        -0.31282
C         38.08502        19.28358        -0.72267
C         39.38719        18.67080        -0.50171
C         40.44440         2.05010        -1.53361
C         40.65297         3.40927        -1.02047
C         41.75339         4.21325        -1.54729
C         40.59016         6.29584        -0.96679
C         40.61418         7.75213        -1.02642
C         41.75892         5.56446        -1.39441
C         41.78235         8.47668        -1.06221
C         40.60594        10.63491        -1.09318
C         40.61000        12.13477        -1.29840
C         41.77667         9.89958        -1.16812
C         41.86269        12.84115        -0.85203
C         40.63521        14.95457        -0.67738
C         40.67132        16.39380        -0.60381
C         41.86008        14.18084        -0.66324
C         41.82662        17.14384        -0.81362
C         40.62114        19.27334        -0.99377
C         41.78544        18.55007        -1.03149
O         23.09732        14.62098         2.51591
O          6.22981        15.83105        -2.20924
O         35.83362         2.27799         0.88559
O         33.40313         2.27872         1.20875
O         40.39755         3.62329         0.39938
O         39.50026        18.01876         0.80848
O         11.19056         3.64110         2.03369
O         19.58857        18.39718         1.49932
O         34.39637        13.68468         1.24479
O         29.05471         7.97662         2.60291
O         29.84192        10.39446         2.85751
H         29.36400         9.69954         3.37056
O         25.67756        14.84765        -1.23985
H         26.46982        15.28188        -1.62533
O         33.60326        11.09284         1.97335
H         33.47964        10.30298         2.53959
O         18.42295         3.40660         2.74630
H         17.63482         2.85003         2.97863
O          7.13475        10.35979         1.66277
H          7.79039         9.78134         2.12332
O          8.34297         7.93601         2.13514
H          7.43740         7.62333         2.35532
O         30.53574        16.14746        -1.97715
H         31.31641        15.62468        -2.28014
O         25.86980        12.24122         2.71429
H         25.78396        13.19278         2.94042
O          9.39560         5.36422         2.17971
H          9.15777         6.22747         2.59689
O          5.09571         0.09821        -0.85544
H          5.01685         0.20651         0.11431
O         33.16786        11.72382        -1.60111
H         33.05726        12.58003        -2.07706
O         20.69505        15.07335         3.16114
H         21.61756        15.11162         3.51566
O         12.19859         6.03347         2.73841
H         11.44030         5.50212         3.07737
O         12.17544        18.54520        -2.03235
H         11.35128        18.06390        -2.26369
O         15.99705         1.86330         2.73401
H         15.16102         2.29119         3.06151
O         40.56052        12.29793        -2.77147
H         40.56974        13.26266        -2.95068
O          7.47895        12.59827        -2.49187
H          6.90257        13.29047        -2.88418
O         13.61789         3.20828         2.80726
H         12.69884         3.00966         3.10495
O         10.38942         4.83026        -1.32270
H         10.33223         4.07099        -1.94015
O         18.02359         7.70300         2.25646
H         18.73595         7.26274         2.76650
O         11.01587        10.34245        -2.03877
H         10.23559        10.83694        -2.37449
O         39.09247         8.42237        -2.71394
H         39.76569         9.01234        -3.11802
O         21.78118        16.63346        -0.90177
H         22.49312        17.02545        -1.45286
O         33.16084        14.67313        -2.07995
H         33.89017        15.20146        -2.47154
O         17.99460        14.85449         2.93197
H         18.85726        15.02872         3.38399
O         22.10903         9.91465         2.94068
H         22.95296         9.51771         3.24816
O         17.51966         8.53561        -1.29077
H         16.75439         8.99727        -1.69769
O         13.74826        10.50773        -1.88130
H         12.83522        10.52712        -2.26605
O         18.72835         6.23926        -1.08291
H         18.21617         6.96524        -1.51570
O         23.14739        12.01949        -0.78878
H         23.48527        12.86083        -1.16719
H          0.47032         1.47183        -1.31941
H          0.36619         3.92194        -1.09150
H          2.68655         0.31027        -1.47319
H          0.32621         5.81793        -1.18808
H          0.25538         8.24285        -1.13587
H          0.21609        10.17592        -1.13824
H          0.21523        12.60027        -1.16393
H          0.22971        14.52045        -0.90663
H          0.27511        16.95342        -0.58277
H          1.51843        19.02778        -0.12283
H          5.24650         1.23148        -2.55888
H          3.66405        20.21839         0.25116
H          7.59159         0.43782        -1.08083
H          6.13347        20.20533         0.29744
H         10.02524         0.47047        -0.72497
H          8.61168        20.21198         0.37363
H         12.46705         0.47784        -0.26719
H         11.07918        20.25285         0.12341
H         14.80853         0.41312         0.27355
H         13.65134        20.25501        -0.42548
H         17.20977         0.32470         0.50598
H         16.06958        20.14593        -0.51355
H         19.70017         0.31645         0.32200
H         18.34268        19.76783        -1.28783
H         22.17563         0.29230         0.39145
H         21.19581        20.31939        -0.63002
H         24.64393         0.30114         0.29292
H         23.38650        20.30846         0.12432
H         27.10568         0.33407         0.06517
H         25.80218        20.31567         0.25144
H         29.52198         0.40290        -0.30041
H         28.26988        20.30605         0.15448
H         31.70730         0.56369        -1.13254
H         30.70475        20.29213        -0.10712
H         34.28280         0.39456        -1.50603
H         33.16813        20.31100        -0.30258
H         36.88717         0.46868        -1.74292
H         35.62209        20.32967        -0.56397
H         39.11026         0.43819        -1.85875
H         38.03781        20.34066        -1.02497
H         41.27754         1.55342        -2.05316
H         42.57210         3.70626        -2.07908
H         42.62197         6.13465        -1.76527
H         42.75685         7.97270        -0.99527
H         42.74556        10.40475        -1.27781
H         42.81248        12.29096        -0.79918
H         42.80316        14.69474        -0.42777
H         42.78781        16.63446        -0.96862
H         40.59471        20.30930        -1.36188
H         42.71437        19.04612        -1.34841
