         480
 CSIRO Nanostructure Databank - Neutral Graphene Oxide Data Set
C         38.06408        49.41001        -1.80437
C         37.29175        49.82766        -2.85482
C         38.43060        51.96940        -2.95502
C         37.55565        51.09197        -3.49786
C         40.16740        48.34238        -0.09182
C         40.15891        49.72653        -0.50189
C         39.11480        50.23850        -1.27634
C         40.27829        52.49137        -1.30016
C         39.01186        51.71600        -1.58088
C         40.36118        53.82251        -1.68050
C         42.50357        48.47612         0.63353
C         41.27058        47.75329         0.44171
C         42.47443        49.92900         0.44861
C         41.30386        50.55011        -0.14338
C         42.41171        52.79220        -0.05559
C         41.33322        51.90287        -0.53579
C         42.54701        54.14791        -0.63055
C         41.50073        54.61743        -1.40702
C         44.97474        45.71503         0.87724
C         43.79398        46.35300         1.05385
C         44.94679        48.53924         1.08735
C         43.68728        47.79402         0.90186
C         44.89917        50.03799         1.04844
C         43.61966        50.68420         0.70533
C         44.87399        52.96551         0.94408
C         43.59876        52.14642         0.66607
C         44.98617        54.18276         0.02044
C         43.77745        54.89543        -0.45247
C         45.12194        56.95568        -0.65886
C         43.91757        56.21997        -0.83261
C         47.48081        44.41454        -0.21131
C         47.45124        45.70100         0.27497
C         46.14551        46.46127         0.27961
C         47.41136        48.53430         0.96477
C         46.23880        47.86170         0.83251
C         47.39667        50.00126         1.21000
C         46.18418        50.73335         0.64076
C         47.38329        52.88884         0.98528
C         46.19535        52.20855         0.91225
C         47.35749        54.40442         1.04928
C         46.27941        54.94163         0.11763
C         47.49834        57.13835         0.11644
C         46.27729        56.39153        -0.14769
C         47.53621        58.54002        -0.12131
C         49.92958        44.40460        -0.28315
C         48.70544        43.73755        -0.40861
C         49.98770        45.75445         0.14380
C         48.72739        46.36205         0.60828
C         49.97587        48.61030         0.82328
C         48.72090        47.83574         0.97056
C         49.97022        50.00398         1.05733
C         48.69448        50.73922         1.27818
C         49.85530        52.92590         1.11350
C         48.67355        52.21193         1.05235
C         49.86085        54.36761         1.00378
C         48.69008        55.06338         0.78278
C         49.93743        57.20713         0.55143
C         48.69016        56.48199         0.51707
C         49.94557        58.60831         0.25125
C         48.71132        59.25032        -0.04356
C         52.45540        41.59793        -0.47660
C         51.26348        42.23836        -0.51726
C         52.47948        44.47316        -0.56135
C         51.17718        43.69922        -0.65882
C         52.44930        45.87827        -0.08846
C         51.21418        46.50379         0.20772
C         52.40295        48.67597         0.51589
C         51.18997        47.92358         0.54881
C         52.37842        50.08743         0.73765
C         51.17403        50.74827         1.01549
C         52.40116        52.99191         1.17391
C         51.14143        52.20087         1.47628
C         52.37358        54.36607         1.21145
C         51.09732        55.13440         1.40935
C         52.38701        57.24430         0.78647
C         51.15069        56.54889         0.86974
C         52.40324        58.64756         0.47474
C         51.17902        59.33302         0.26274
C         52.38465        61.44591         0.05462
C         51.21027        60.74999         0.05335
C         54.96939        40.13867        -0.19044
C         54.97171        41.54836        -0.30347
C         53.72528        42.30158        -0.47133
C         54.97599        44.45445        -0.43172
C         53.72337        43.68622        -0.45172
C         54.92261        45.88148        -0.07557
C         53.70093        46.57732         0.06085
C         54.86996        48.73781         0.46933
C         53.66281        48.00032         0.32573
C         54.89593        50.12310         0.67589
C         53.62461        50.89104         0.44261
C         54.86891        52.95147         1.08577
C         53.65129        52.28976         1.00482
C         54.92347        54.39053         1.39390
C         53.60948        55.14654         1.38305
C         54.86334        57.25025         0.91534
C         53.63028        56.57806         1.03934
C         54.86044        58.63568         0.55661
C         53.65378        59.35103         0.39587
C         54.84430        61.53858         0.24358
C         53.65163        60.79167         0.20818
C         54.89204        62.97248         0.12720
C         57.35936        40.09979         0.29247
C         56.12284        39.43666         0.11235
C         57.39946        41.50371         0.10106
C         56.21900        42.21742        -0.18501
C         57.49843        44.38551         0.15941
C         56.28441        43.69187        -0.35496
C         57.46174        45.81892         0.39014
C         56.21750        46.57136         0.05985
C         57.33193        48.68817         1.00479
C         56.16558        48.03800         0.34321
C         57.36807        50.15383         0.93796
C         56.13189        50.84360         0.81484
C         57.36002        52.96886         1.04483
C         56.12640        52.26207         0.94141
C         57.38650        54.41508         1.08564
C         56.16843        55.13974         1.13840
C         57.38314        57.26210         0.94745
C         56.13454        56.54426         1.02609
C         57.40551        58.64795         0.69429
C         56.14177        59.30713         0.31891
C         57.38349        61.54426         0.54840
C         56.12815        60.82586         0.20076
C         57.35607        63.05684         0.39346
C         56.05626        63.67827         0.08400
C         59.73070        37.35032         1.40954
C         58.61728        38.01327         0.82692
C         59.63580        40.23075         1.35441
C         58.54382        39.38916         0.74075
C         59.89364        41.53710         0.65752
C         58.73252        42.21662        -0.03684
C         59.87084        44.29289         0.97139
C         58.64433        43.67175         0.35670
C         59.87703        45.79754         0.91443
C         58.62357        46.48192         0.77201
C         59.86597        48.66339         1.22091
C         58.60647        47.91790         1.13035
C         59.84959        50.08503         1.20092
C         58.59765        50.83107         1.02973
C         59.84162        52.98562         0.89128
C         58.58242        52.24997         1.01055
C         59.86484        54.43247         1.10408
C         58.62710        55.12565         1.11723
C         59.85766        57.25972         1.10184
C         58.62725        56.55712         1.08841
C         59.86253        58.68361         0.91180
C         58.63511        59.37270         0.66011
C         59.87648        61.49673         0.49164
C         58.66487        60.79702         0.49203
C         59.89974        63.02714         0.51641
C         58.63013        63.69485         0.04244
C         59.90605        65.55227        -0.88556
C         58.68183        64.92153        -0.59262
C         62.74167        35.61267         0.91524
C         62.86057        36.90746         1.40235
C         60.84431        38.07205         1.82423
C         62.10456        40.20974         1.76821
C         60.90764        39.48283         1.65752
C         62.29350        41.51772         1.26749
C         61.10060        42.18348         0.76474
C         62.37373        44.35342         0.98233
C         61.15052        43.65807         0.41582
C         62.31175        45.71372         1.22739
C         61.07176        46.47041         1.15467
C         62.26577        48.60762         1.65314
C         61.09396        47.92737         1.31740
C         62.24717        50.06008         1.84465
C         61.05119        50.78821         1.41600
C         62.37000        52.97545         1.44008
C         61.15186        52.20715         1.11671
C         62.34511        54.39833         1.38673
C         61.10044        55.11492         1.23884
C         62.32386        57.24036         1.41382
C         61.09804        56.54504         1.26842
C         62.35897        58.75338         1.40857
C         61.07883        59.41379         0.94765
C         62.40598        61.55590         0.75371
C         61.09447        60.78980         0.70007
C         62.33491        62.76345        -0.16494
C         61.12548        63.59444        -0.15826
C         62.44223        65.61269        -0.95951
C         61.13184        64.87119        -0.71855
C         62.40761        66.71585        -1.98383
C         64.74685        35.90410        -0.45208
C         63.67592        35.12686        -0.02173
C         64.87987        37.23400         0.04018
C         63.92750        37.74811         0.97373
C         64.96019        40.00480         0.84863
C         64.03858        39.11174         1.38261
C         64.85146        41.45855         1.03780
C         63.59318        42.15856         1.16551
C         64.83747        44.29611         1.11282
C         63.61419        43.59681         1.08292
C         64.82727        45.80519         0.99096
C         63.56717        46.42082         1.58506
C         64.80747        48.69387         1.66413
C         63.55129        47.90954         1.83457
C         64.83245        50.06910         1.67185
C         63.57798        50.82783         1.89760
C         64.81273        52.98112         1.65760
C         63.57236        52.27938         1.62970
C         64.79137        54.39567         1.69053
C         63.56813        55.11499         1.58393
C         64.78375        57.31700         1.63706
C         63.54211        56.55780         1.57925
C         64.83525        58.61063         1.14433
C         63.55847        59.20858         0.57673
C         64.83053        61.28589         0.15445
C         63.62978        60.70689         0.45310
C         64.90047        62.77584        -0.10040
C         63.61446        63.33341        -0.68822
C         64.81865        65.25793        -1.68135
C         63.65190        64.72930        -1.18075
C         64.85120        66.61351        -2.20090
C         63.56379        67.23676        -2.45523
C         67.01368        33.37191        -2.05575
C         65.89697        33.92991        -1.54497
C         67.04501        36.14515        -1.47942
C         65.70931        35.42507        -1.52134
C         67.12505        37.43524        -0.97758
C         66.00754        38.04272        -0.30840
C         67.23266        40.16829        -0.08636
C         66.06728        39.41119         0.11699
C         67.29941        41.49438         0.54654
C         66.04994        42.20532         0.89903
C         67.31742        44.39729         0.89347
C         66.07157        43.62072         1.00687
C         67.33781        45.78588         1.06632
C         66.08723        46.45730         1.58639
C         67.30554        48.68877         1.07272
C         66.03003        47.94259         1.28518
C         67.32588        50.13628         1.36387
C         66.07328        50.83461         1.55102
C         67.33980        52.97406         1.63752
C         66.04791        52.23402         1.66723
C         67.36185        54.46189         1.84185
C         66.03407        55.12716         2.04045
C         67.32427        57.35464         2.06261
C         66.01144        56.62508         2.08424
C         67.33985        58.73154         1.44525
C         66.07283        59.31481         0.93310
C         67.36760        61.11068        -0.23016
C         66.08174        60.55617         0.31333
C         67.37547        62.56419        -0.56128
C         66.07999        63.13742        -0.97861
C         67.36706        65.07171        -2.04936
C         66.05016        64.41950        -1.73587
C         67.35567        66.54287        -2.43526
C         66.06239        67.26481        -2.47707
C         67.32885        69.33114        -2.82522
C         66.12882        68.66232        -2.75153
C         69.19726        32.22101        -3.64519
C         69.22410        33.58430        -3.25128
C         68.14580        34.17234        -2.49138
C         69.34954        36.32545        -2.43605
C         68.18373        35.52781        -2.12476
C         69.44707        37.65952        -1.95514
C         68.47438        38.11696        -0.89612
C         69.48207        40.39953        -1.06165
C         68.39398        39.62231        -0.74552
C         69.56800        41.85083        -0.67478
C         68.55217        42.28315         0.35859
C         69.76404        44.42470         0.51634
C         68.54147        43.74011         0.58288
C         69.80168        45.82985         0.68827
C         68.55927        46.53446         0.93274
C         69.81690        48.71787         0.75636
C         68.56915        47.93112         1.04815
C         69.80326        50.08326         1.41791
C         68.56155        50.76763         1.54481
C         69.86169        52.90399         1.97669
C         68.54188        52.17565         2.09757
C         69.87947        54.39651         2.28637
C         68.60651        55.20674         2.24619
C         69.79852        57.44049         2.30107
C         68.60042        56.58384         2.20802
C         69.91137        58.66908         1.39665
C         68.61139        59.35291         1.06256
C         69.77505        61.39941         0.40736
C         68.61614        60.61501         0.43729
C         69.79681        62.82908        -0.04194
C         68.54326        63.28032        -0.74136
C         69.82228        65.24535        -1.57675
C         68.58954        64.53465        -1.43174
C         69.82645        66.62513        -2.01029
C         68.61111        67.30998        -2.30648
C         69.82862        69.44359        -2.61387
C         68.58765        68.69527        -2.57259
C         69.85164        70.83339        -2.89033
C         71.29394        32.47535        -4.81944
C         70.21279        31.67525        -4.41178
C         71.34404        33.81087        -4.45183
C         70.32240        34.39461        -3.66562
C         71.44966        36.63162        -3.63360
C         70.38099        35.78606        -3.25395
C         71.49957        37.94894        -3.21264
C         70.52175        38.46820        -2.33638
C         71.94829        40.39577        -1.48478
C         70.59149        39.93734        -1.97884
C         72.11221        41.48618        -0.71884
C         70.96228        42.23469        -0.16003
C         72.28371        44.41817         0.41027
C         71.03205        43.64672         0.40170
C         72.27782        45.76083         0.58638
C         71.05388        46.52816         0.73181
C         72.25922        48.61962         1.30754
C         71.08032        47.91978         0.96420
C         72.23186        49.94544         1.70082
C         71.01713        50.68632         1.80643
C         72.14662        52.63376         2.88001
C         71.04747        52.06403         2.28068
C         72.10388        53.97468         3.36485
C         71.03428        54.79355         3.11345
C         72.15120        57.87576         3.00924
C         70.91932        57.10798         3.00825
C         72.21868        59.08321         2.41052
C         70.97447        59.66764         1.85951
C         72.19181        61.80475         0.97441
C         70.95532        61.02507         1.21302
C         72.26790        62.75384         0.02725
C         71.07558        63.14871        -0.83105
C         72.25168        65.32562        -1.39744
C         71.06182        64.61369        -1.24411
C         72.25666        66.66573        -1.78809
C         71.06034        67.34809        -2.06890
C         72.26734        69.50152        -2.48531
C         71.06148        68.76449        -2.39924
C         72.26340        70.85910        -2.76445
C         71.04621        71.53089        -2.96362
O         42.48581        52.73272         1.42759
O         62.86046        50.48965         3.13106
O         67.28945        58.52944         2.93258
O         71.04553        42.44582         1.27105
O         56.25680        59.98812        -0.99213
O         63.18331        39.56578         2.39115
O         66.42406        48.28812        -0.09437
O         70.54741        60.82190         2.63793
O         61.94301        37.36857         2.36514
O         67.36041        60.35942        -1.65709
O         67.48747        53.87085         0.49229
O         62.82892        62.42805        -1.52349
O         51.79746        44.25912        -1.85995
O         55.82089        44.18896        -1.64464
O         60.66117        52.53524        -0.23893
O         46.01234        54.06122        -1.02951
O         67.48556        65.47134        -3.45057
O         57.32605        62.39592         1.73725
O         54.28889        54.80406         2.64946
O         65.88388        55.83127         3.31729
O         63.60733        46.92088         2.94586
O         56.45651        47.58739        -1.02072
O         57.70015        48.14259         2.31457
O         70.96413        55.97762         3.84004
O         48.79881        46.82465         2.03205
O         68.40106        41.49298         1.56756
O         70.14429        53.86729         0.93016
O         47.92114        50.40209         2.50426
O         65.83706        63.11777        -2.42450
O         44.94512        49.35843         2.32873
O         62.60393        59.23060         2.76963
H         61.96167        58.79372         3.36781
O         69.05950        37.65924         0.37331
H         68.53683        38.05753         1.10183
O         59.03997        42.17371        -1.46840
H         58.43753        42.79875        -1.92576
O         38.01724        52.25559        -0.63348
H         37.18991        51.74589        -0.76883
O         62.68449        66.27271         0.33912
H         63.48185        66.83534         0.24010
O         63.37070        58.67191        -0.76142
H         64.01829        59.10150        -1.35938
O         71.06025        62.33795        -2.02504
H         71.78334        62.63314        -2.61528
O         65.10457        63.43914         1.17421
H         64.36601        63.16138         1.76935
O         64.78812        46.07712        -0.43491
H         65.45126        46.77054        -0.66016
O         50.97017        55.26543         2.86815
H         51.03348        54.35541         3.24203
O         59.99199        63.36536         1.94765
H         59.13180        63.08969         2.34593
O         70.45514        58.17505         0.12413
H         69.80885        57.55517        -0.27559
O         69.77094        48.97907        -0.70304
H         68.89804        49.38288        -0.90115
O         70.39193        40.65227        -3.26193
H         69.64474        40.21951        -3.72792
O         47.04315        54.83435         2.39827
H         46.21474        54.36868         2.67894
O         67.99557        61.17727        -2.63434
H         67.27060        61.78805        -2.94007
O         51.11777        52.15349         2.94762
H         50.32900        51.63383         3.21841
O         61.16990        43.87379        -1.01006
H         61.94661        43.41003        -1.38444
O         62.62252        62.04542         2.10845
H         62.63784        61.24799         2.69283
O         65.08191        35.78230        -2.80632
H         65.67745        35.46131        -3.51644
O         66.10977        46.32259         3.02262
H         66.01877        45.37384         3.24989
O         59.83943        43.93963         2.39719
H         59.15669        44.49479         2.83054
O         69.30225        42.66829        -1.84732
H         69.76514        42.23575        -2.60990
O         59.08258        40.65202         2.67282
H         59.65551        41.37484         3.01244
O         45.81450        46.67101        -1.14246
H         45.67384        45.79002        -1.54971
O         46.25199        50.58368        -0.81531
H         46.64265        51.39706        -1.20138
O         69.88498        63.64257         1.16882
H         69.28166        63.26460         1.84315
O         68.37932        52.03757         3.54805
H         67.61028        51.45230         3.71763
O         44.72801        53.47955         2.29721
H         43.75825        53.50739         2.49029
O         53.57494        51.10993        -1.02780
H         53.74613        50.24375        -1.45760
H         37.92405        48.38956        -1.42055
H         36.52270        49.16467        -3.27415
H         38.62397        52.93179        -3.45048
H         37.05667        51.31452        -4.45215
H         39.26282        47.73595        -0.23204
H         39.53702        54.28237        -2.24218
H         41.23350        46.68764         0.70695
H         41.54502        55.62586        -1.84064
H         45.05145        44.63022         1.04283
H         42.90668        45.77821         1.36045
H         45.09113        58.02447        -0.91067
H         43.04789        56.76673        -1.22324
H         46.54235        43.89637        -0.46031
H         46.61420        59.07484        -0.38446
H         48.67953        42.69978        -0.76468
H         48.68294        60.32869        -0.24466
H         52.44931        40.50515        -0.37689
H         50.33814        41.65758        -0.39634
H         52.35036        62.53286        -0.09344
H         50.27410        61.30404        -0.09099
H         54.03949        39.57026        -0.31715
H         53.95239        63.52444        -0.01116
H         56.06279        38.34642         0.23171
H         56.02027        64.76109        -0.09895
H         59.73428        36.25491         1.48002
H         57.80299        37.39096         0.42898
H         59.88256        66.56983        -1.29532
H         57.75060        65.44462        -0.85300
H         61.91152        34.97487         1.24537
H         61.45451        67.19204        -2.25256
H         63.53260        34.11003        -0.41102
H         63.52883        68.11010        -3.12263
H         67.07750        32.27690        -2.12190
H         65.06577        33.27796        -1.24211
H         67.30352        70.40673        -3.04269
H         65.19715        69.23113        -2.87760
H         68.35965        31.57711        -3.34653
H         68.91409        71.38084        -3.05343
H         72.09929        32.04196        -5.42827
H         70.17233        30.61697        -4.70448
H         72.20007        34.41511        -4.78048
H         72.25187        36.25615        -4.28216
H         72.32216        38.59595        -3.54793
H         72.83180        39.83890        -1.83153
H         73.12214        41.78205        -0.39528
H         73.23494        43.87738         0.30498
H         73.23768        46.29542         0.59019
H         73.22236        48.09089         1.33385
H         73.17938        50.42743         1.97566
H         73.04311        52.03753         3.09644
H         72.91365        54.34000         4.00925
H         73.02278        57.44144         3.51772
H         73.13658        59.68588         2.45324
H         73.07851        61.56610         1.58063
H         73.23555        63.25249        -0.13340
H         73.21821        64.84407        -1.19582
H         73.22373        67.17945        -1.85852
H         73.23308        69.00241        -2.33147
H         73.21197        71.40990        -2.82697
H         71.04161        72.60791        -3.18067
