         576
 CSIRO Nanostructure Databank - Neutral Graphene Oxide Data Set
C          5.96686        19.04206         1.09299
C          5.93104        20.40629         0.99056
C          4.70141        21.18819         1.03674
C          5.91689        23.30271         1.63785
C          4.67901        22.51920         1.27113
C          5.89860        24.74099         1.18595
C          8.41551        14.77305         1.23149
C          8.42330        16.14671         1.24472
C          7.20924        16.92109         1.14879
C          8.47609        19.03313         0.95431
C          7.21035        18.30106         1.08232
C          8.47253        20.45513         0.84114
C          7.18833        21.15687         0.79823
C          8.45987        23.33377         1.30727
C          7.16544        22.63682         1.06154
C          8.40512        24.84132         1.20676
C          7.07252        25.48223         0.97387
C          8.24676        27.51782         0.02095
C          7.03696        26.81561         0.55885
C          8.33986        28.98180         0.35728
C         10.80423        10.39456         0.68953
C         10.78538        11.80037         0.80109
C          9.60207        12.53289         0.93335
C         10.98577        14.67049         1.37598
C          9.63151        13.94692         1.33188
C         11.00520        16.16510         1.40893
C          9.68943        16.91283         1.36520
C         10.95156        19.00275         0.53826
C          9.68131        18.32858         0.96959
C         10.92133        20.47854         0.83572
C          9.71467        21.18804         0.90479
C         10.90821        23.40398         0.98157
C          9.72375        22.63023         1.04616
C         10.88214        24.80809         0.79164
C          9.64161        25.53047         0.78228
C         10.72678        27.54896        -0.18525
C          9.54988        26.85316         0.36637
C         10.75384        29.01700        -0.18337
C          9.53779        29.69992         0.18251
C         10.78293        31.84297         0.22442
C          9.58065        31.11214         0.37030
C         10.80677        33.25697         0.32068
C         13.43817         6.08311         0.79209
C         13.35086         7.52513         0.69064
C         12.13032         8.17749         0.72854
C         13.37873        10.39206         0.61037
C         12.04562         9.63618         0.84241
C         13.30816        11.82256         0.19967
C         12.04296        12.56119         0.51512
C         13.39065        14.65718         0.70464
C         12.17390        13.98917         0.82879
C         13.43499        16.10675         0.90076
C         12.26906        16.85038         1.05020
C         13.41967        18.99760         0.81180
C         12.24776        18.29768         0.92310
C         13.42194        20.46457         0.47128
C         12.19483        21.17908         1.01597
C         13.51694        23.45864         0.91876
C         12.20095        22.68873         1.09926
C         13.36468        24.76510         0.18356
C         12.16978        25.59503         0.57502
C         13.21892        27.55950        -0.84078
C         11.97976        26.77715        -0.37310
C         13.22203        28.97596        -0.31179
C         12.01080        29.68968        -0.15893
C         13.20982        31.86771        -0.11773
C         12.01936        31.13540         0.00266
C         13.23321        33.28052        -0.01304
C         12.00669        33.99211         0.20012
C         13.23672        36.12337         0.16238
C         12.03238        35.41821         0.27453
C         13.27638        37.59188         0.14600
C         15.88421         6.12936         0.59715
C         14.63411         5.42671         0.77976
C         15.82312         7.54028         0.43539
C         14.59925         8.24913         0.48981
C         15.74241        10.36389        -0.18367
C         14.58878         9.65273         0.30022
C         15.76464        11.81949        -0.26321
C         14.58462        12.55994         0.13046
C         15.93212        14.58161         0.32921
C         14.60524        13.92457         0.36104
C         15.99675        16.09043         0.52652
C         14.73367        16.80704         0.91195
C         15.90557        19.02708         0.34009
C         14.72416        18.31969         0.88269
C         15.92281        20.40984         0.35067
C         14.72539        21.17303         0.89183
C         15.80738        23.24078        -0.15874
C         14.63081        22.59553         0.39740
C         15.78893        24.71138        -0.45685
C         14.50673        25.45196        -0.28462
C         15.77964        27.52215        -0.99623
C         14.50823        26.82260        -0.57334
C         15.76223        28.99083        -0.64712
C         14.51492        29.64714        -0.24768
C         15.65184        31.88445        -0.88903
C         14.50977        31.16730        -0.20490
C         15.68316        33.32615        -0.45105
C         14.48378        34.00248        -0.10989
C         15.69926        36.22968        -0.27260
C         14.45701        35.41917         0.01364
C         15.72376        37.55188         0.50403
C         14.42907        38.28917         0.23099
C         18.33967         6.07626         0.22542
C         17.11324         5.43646         0.51629
C         18.36507         7.54800         0.07994
C         17.05672         8.30544         0.22365
C         18.05733        10.25995        -1.04268
C         16.93538         9.65595        -0.33786
C         18.07279        11.78903        -1.21808
C         16.92990        12.51199        -0.62801
C         18.18260        14.64929        -0.74147
C         17.03824        13.92543        -0.39652
C         18.19439        16.08010        -0.59488
C         17.11245        16.79850        -0.09879
C         18.26600        19.03720        -0.49269
C         16.96822        18.27322        -0.42716
C         18.26305        20.42199        -0.41887
C         17.08644        21.12238        -0.05028
C         18.32880        23.32054        -0.24450
C         17.11468        22.58609         0.23955
C         18.29742        24.75991        -0.24799
C         17.06238        25.46050        -0.36856
C         18.25584        27.59058        -0.43945
C         17.05061        26.85019        -0.51481
C         18.22983        29.01726        -0.58931
C         16.96857        29.71792        -0.65353
C         18.17775        31.84436        -0.83970
C         16.97084        31.15609        -0.71791
C         18.21426        33.32542        -0.95773
C         16.90394        34.07544        -0.71417
C         18.23115        36.23512        -0.46950
C         16.98641        35.42929        -0.03412
C         18.24108        37.64429         0.10744
C         17.01517        38.30466         0.29250
C         20.77939         6.10187        -0.14448
C         19.56611         5.40701         0.11937
C         20.73670         7.49398        -0.61746
C         19.48816         8.15860        -0.63568
C         20.59890        10.28964        -1.52739
C         19.34633         9.51015        -1.20044
C         20.59348        11.78667        -1.49691
C         19.37019        12.48121        -1.37054
C         20.57254        14.68601        -1.77078
C         19.22142        13.97122        -1.64287
C         20.61563        16.17771        -1.54087
C         19.46887        16.81868        -0.82749
C         20.77063        19.03916        -1.06110
C         19.52557        18.31148        -0.70119
C         20.72187        20.50436        -1.23352
C         19.45999        21.20226        -0.83375
C         20.77164        23.32582        -0.49247
C         19.49613        22.64918        -0.53228
C         20.76471        24.74974        -0.18723
C         19.52114        25.46482        -0.24469
C         20.73743        27.58661        -0.27926
C         19.51305        26.89753        -0.28307
C         20.75563        29.08967        -0.26104
C         19.43859        29.75312        -0.60452
C         20.66524        31.89197        -1.07325
C         19.41496        31.14292        -0.76639
C         20.70116        33.34292        -0.74103
C         19.48335        34.02046        -0.67038
C         20.74797        36.08757         0.18747
C         19.45538        35.40587        -0.15225
C         20.77764        37.57908         0.53725
C         19.47150        38.29516         0.27874
C         23.25006         6.13827        -0.15139
C         22.01430         5.45788        -0.00263
C         23.23073         7.62840        -0.42242
C         21.92817         8.15290        -0.97813
C         23.19135        10.28558        -1.71790
C         21.90779         9.53817        -1.49735
C         23.14999        11.78232        -1.66179
C         21.83880        12.46054        -1.57959
C         23.09877        14.65838        -1.34426
C         21.88097        13.92605        -1.77026
C         23.24077        16.16833        -1.57960
C         21.91942        16.92093        -1.51148
C         23.24330        19.03972        -1.01772
C         21.95640        18.35715        -1.11012
C         23.28403        20.50535        -1.05485
C         22.02805        21.28763        -1.42901
C         23.22285        23.24054        -0.31712
C         21.95758        22.63754        -0.73047
C         23.20684        24.69216         0.12432
C         21.96341        25.45591        -0.02080
C         23.20826        27.60190        -0.21432
C         21.97944        26.89393        -0.14099
C         23.24907        28.93965        -0.83758
C         21.94157        29.64517        -1.03305
C         23.24880        31.85704        -1.29325
C         21.93480        31.12564        -1.28711
C         23.19627        33.35883        -1.04732
C         21.94694        34.03076        -0.61170
C         23.18790        36.14905        -0.23800
C         21.99961        35.40330        -0.21325
C         23.19460        37.61233        -0.23298
C         21.97513        38.28622        -0.02577
C         25.72774         6.15109        -0.02220
C         24.45484         5.51746         0.15859
C         25.76609         7.40387        -0.81312
C         24.48382         8.12872        -1.13022
C         25.81663        10.39193        -1.61857
C         24.52494         9.55473        -1.59243
C         25.63610        11.69754        -0.76583
C         24.39845        12.53904        -1.22047
C         25.22000        14.72410        -0.14733
C         24.17044        13.97736        -0.82923
C         25.49012        16.05334        -0.32531
C         24.20227        16.82690        -0.56704
C         25.75412        18.91773        -0.84886
C         24.37426        18.29834        -0.79393
C         25.69268        20.38873        -0.37509
C         24.46204        21.15013        -0.83801
C         25.76936        23.29910        -0.37657
C         24.50097        22.66231        -0.91387
C         25.74815        24.72178        -0.10122
C         24.50874        25.41137         0.20484
C         25.74443        27.63575        -0.22240
C         24.47846        26.96737         0.09841
C         25.73891        29.03629        -0.53421
C         24.51413        29.72123        -0.80126
C         25.74438        31.82760        -0.90483
C         24.51460        31.11489        -0.99245
C         25.74490        33.31988        -1.21225
C         24.49342        33.98555        -0.65593
C         25.72280        36.26740        -0.10780
C         24.47031        35.43480        -0.26076
C         25.69194        37.63621        -0.78045
C         24.39127        38.32826        -0.46986
C         28.20638         6.21957         0.17171
C         26.91583         5.59737         0.41019
C         28.26552         7.52381        -0.36942
C         27.05711         8.16625        -0.89706
C         28.24055        10.32999        -0.97392
C         27.06444         9.63334        -1.11992
C         28.17968        11.78686        -1.36364
C         26.96674        12.47686        -0.78756
C         28.23366        14.44258         0.38903
C         27.10656        13.56226         0.02197
C         28.00109        15.93465         0.55139
C         26.73395        16.73244         0.19774
C         28.06497        18.93105         0.14412
C         26.87784        18.20612        -0.07998
C         28.16985        20.35630        -0.01832
C         27.01676        21.11680        -0.67494
C         28.25947        23.31702        -0.33721
C         26.94417        22.58941        -0.31861
C         28.18240        24.77314         0.03580
C         26.95595        25.46581        -0.00603
C         28.19150        27.62895        -0.10749
C         26.94404        26.92228        -0.06725
C         28.21560        29.03403        -0.34036
C         26.97611        29.74312        -0.56065
C         28.26039        31.92120        -0.91071
C         26.95753        31.14750        -0.75169
C         28.06961        33.27158        -0.05310
C         27.00751        34.07477        -0.75863
C         28.22187        36.23646        -0.03103
C         26.99191        35.53290        -0.46419
C         28.16543        37.70346        -0.08734
C         26.94943        38.37289        -0.35482
C         30.70792         6.06662         0.23774
C         29.38567         5.53941         0.54673
C         30.79227         7.46898        -0.37158
C         29.53786         8.19065        -0.84029
C         30.61896        10.33390        -0.09274
C         29.49180         9.67925        -0.56381
C         30.60066        11.74782         0.28010
C         29.49484        12.36493         0.81432
C         30.65218        14.54050         1.21636
C         29.38337        13.83375         0.80953
C         30.54630        16.05505         1.21026
C         29.25888        16.74040         0.85745
C         30.46049        18.96043         1.15940
C         29.38109        18.17814         0.35131
C         30.51702        20.41622         0.76600
C         29.37601        21.09035         0.32167
C         30.54175        23.29256         0.62391
C         29.41054        22.55454         0.26245
C         30.54887        24.73637         0.59190
C         29.38697        25.47764         0.28834
C         30.60930        27.64591         0.26316
C         29.40001        26.92747         0.18831
C         30.65311        29.03327        -0.01789
C         29.46308        29.72728        -0.34034
C         30.65720        31.85783        -0.15549
C         29.50094        31.17623        -0.43893
C         30.65121        33.29620         0.19140
C         29.35840        34.04096         0.22257
C         30.67472        36.20108         0.14877
C         29.39899        35.52893         0.09462
C         30.68511        37.67198        -0.20244
C         29.38622        38.39040         0.05371
C         33.10379         6.20010         0.79761
C         31.91955         5.55005         0.90630
C         33.19715         7.56839         0.31014
C         31.98167         8.25962        -0.04274
C         33.12265        10.41725         0.16534
C         31.90760         9.64957         0.01087
C         33.09874        11.80958         0.08088
C         31.82014        12.55673         0.01464
C         33.09614        14.76571         0.52689
C         31.82535        14.01127         0.40544
C         33.09627        16.10504         0.81112
C         31.88191        16.80724         1.39661
C         33.01876        18.98402         0.91153
C         31.80859        18.26487         1.01228
C         33.02712        20.38754         0.96415
C         31.74138        21.13346         1.26397
C         32.97786        23.27223         0.98956
C         31.78965        22.60143         0.91851
C         33.02515        24.73142         1.20144
C         31.73914        25.47596         1.04116
C         33.12581        27.64441         0.70843
C         31.80461        26.97386         0.79869
C         33.16884        29.02946         0.45041
C         31.99904        29.66719        -0.27379
C         33.06312        31.90515         0.56918
C         32.02271        31.22764        -0.30930
C         33.08509        33.38616         0.51469
C         31.92146        34.06183         0.27686
C         33.13160        36.22918         0.48845
C         31.86941        35.51281         0.30112
C         33.07127        37.69100         0.50334
C         31.92949        38.36879         0.27608
C         34.38374         8.27846         0.34635
C         35.60277        10.38805         0.06042
C         34.39915         9.70615         0.19419
C         35.67829        11.82798         0.23753
C         34.31103        12.57705         0.32028
C         35.61652        14.67678         0.45294
C         34.31829        14.05850        -0.02437
C         35.60964        16.16542         0.67137
C         34.32083        16.88742         0.73007
C         35.55410        19.01248         0.70267
C         34.30540        18.26845         0.80049
C         35.56761        20.40479         0.82880
C         34.31225        21.11088         1.28245
C         35.53751        23.30694         0.63354
C         34.26183        22.55174         0.80858
C         35.58705        24.76883         0.86416
C         34.32619        25.47986         1.19906
C         35.55006        27.63173         0.98149
C         34.31950        26.94722         0.96990
C         35.58563        29.03649         0.88110
C         34.38021        29.72378         0.62959
C         35.62260        31.94697         0.84622
C         34.34477        31.18980         0.82184
C         35.58776        33.33495         0.81788
C         34.30030        34.08492         1.07337
C         34.29099        35.55894         0.76213
C         36.85475        12.61268        -0.13583
C         38.05070        14.76601        -0.05947
C         36.87917        13.99825         0.04097
C         38.06314        16.19058         0.10108
C         36.83899        16.90393         0.39588
C         38.00221        19.05321         0.27287
C         36.79678        18.31918         0.42319
C         38.01636        20.44693         0.47930
C         36.78643        21.13973         0.71224
C         38.02184        23.26794         0.65232
C         36.81976        22.56980         0.72774
C         38.03101        24.76110         0.39904
C         36.77003        25.43017         0.88282
C         38.10825        27.61995         1.20391
C         36.79508        26.87490         1.22510
C         38.06128        29.06704         0.96830
C         36.85487        29.77061         0.91613
C         36.82972        31.19371         0.82936
C         39.24830        16.90174        -0.07931
C         40.51023        19.08378         0.16392
C         39.24626        18.38625        -0.25148
C         40.51246        20.42962         0.41911
C         39.25855        21.16670         0.48668
C         40.51481        23.29851         0.70255
C         39.26201        22.56223         0.61507
C         40.52060        24.67669         0.82188
C         39.31175        25.46276         0.82121
C         39.34152        26.81762         1.01969
C         41.74174        21.17586         0.61730
C         41.74159        22.53159         0.73259
O         14.95478        17.59221         2.13612
O         29.01892        12.35416        -2.03220
O         27.33738        35.02132        -1.80937
O         24.54884        26.26660         1.38468
O         29.61040        16.49098         2.25835
O         11.02656        26.69934        -1.47047
O         28.40366        32.30681        -2.22276
O         14.80710        30.45285         1.00224
O         31.01290         6.29816        -1.21193
O         12.87525        10.16943         1.95844
O         19.96684        35.39546         1.22671
O         33.35578        31.44783         1.93308
O         37.43952        27.21418         2.49317
O         33.72502        25.04241         2.46532
O         23.21105        23.58675         1.10422
O         16.38128        15.16472         1.59698
O         31.50456        26.41733         2.13182
O         21.09984        16.85203        -2.74039
O         22.47704         9.75000        -2.86318
O         21.11381        31.51245        -2.43023
O         25.96114        13.93414         0.74572
O         32.07645        29.18488        -1.61445
O         24.52391        34.32234         0.75096
O         34.76390        22.82909        -0.54553
O         12.28482        21.86099         2.31223
O          8.49763        24.17434         2.51537
O          7.07062        22.17331        -0.30410
O         31.61323        13.62450        -1.00229
O         10.42334        16.70601         2.63748
O         23.26145        32.80882        -2.39184
O         12.41708        12.19619        -0.89537
O         35.04663        12.25559         1.51561
O         15.75771        23.71763        -1.54970
O         19.75083        20.90931        -2.27138
O         19.86505        17.40800         0.46357
O         10.42932        14.09218         2.58660
O         17.42555        33.90213        -2.07376
O         18.03485         8.25640         1.34922
O         21.23311        14.35856        -3.02891
O         29.92153        33.55512         1.49123
O         17.65545        10.89234        -2.29633
O         35.66666        15.16802         1.80414
O         22.48464        28.89920        -2.13693
O         26.57368         7.31698        -2.02314
O         24.07299        12.39318        -2.62525
O         24.46198         8.44096        -2.53907
O         27.02299        16.30700         1.58451
O         19.80727         9.66771        -2.58655
O         21.04003        29.50547         1.12218
H         20.35091        29.12156         1.70512
O         16.44884        18.24672        -1.82600
H         16.38736        19.17669        -2.13709
O         13.92264        23.84638         2.29176
H         13.74526        23.04276         2.84604
O         17.14490        22.72626         1.71373
H         18.00814        22.38367         2.03110
O         26.07905        10.79313        -2.96530
H         25.90996        10.02299        -3.54975
O         34.28883        14.19118        -1.46721
H         33.36402        13.98604        -1.75584
O         25.57015        20.30660         1.06986
H         25.48822        21.21521         1.43037
O         37.99835        24.90383        -1.06370
H         38.75280        24.39443        -1.42881
O         25.36914        11.25889         0.58223
H         25.32669        12.06490         1.14730
O         27.27933        21.08613        -2.11194
H         27.91979        21.82587        -2.29881
O         15.68312        37.22920         1.94196
H         15.75838        38.07069         2.43956
O         24.48768        23.04518        -2.32014
H         23.76206        22.53777        -2.76650
O         34.39624        21.16501         2.74227
H         33.47146        21.28112         3.08436
O         25.75782        37.42290        -2.22264
H         25.75202        38.29576        -2.66700
O         14.81754        21.18863         2.33585
H         15.65419        21.66793         2.54919
O         15.85115        27.44559        -2.46172
H         14.93289        27.59787        -2.79846
O         10.97650        18.90348        -0.96684
H         10.13606        19.29396        -1.29457
O         30.95126        14.16354         2.58928
H         30.30717        14.64345         3.15793
O         39.18087        18.57063        -1.73750
H         38.35612        18.13656        -2.04596
O         13.34650        20.57320        -0.97486
H         12.59231        20.00552        -1.27355
O         17.12313        35.09194         1.35756
H         16.76334        35.83372         1.90386
O         30.11300        18.98995         2.57492
H         30.13949        18.05480         2.90789
O         25.83508        36.55315         1.30887
H         25.59990        35.73033         1.79411
O         23.77803        16.28935        -2.89900
H         23.04174        16.13146        -3.53183
O         15.62500        36.59193        -1.68154
H         15.42959        35.77865        -2.19479
O         31.66108        21.15322         2.74790
H         31.14899        20.34251         3.01889
O         28.48170        11.62429         1.35152
H         27.81335        12.20744         1.76395
O         30.75709        37.72231        -1.68609
H         30.04717        37.13955        -2.03516
O          8.09994        27.40774        -1.45820
H          8.96424        27.12433        -1.83225
O         27.50274        32.89067         1.19864
H         28.25272        32.81761         1.84028
O         12.50491        26.22756         1.85451
H         12.94725        25.53395         2.40421
O         15.35139        31.88536        -2.32078
H         16.05328        32.42743        -2.75243
O         28.60913        23.37971        -1.81480
H         28.00093        24.03593        -2.22287
O         22.16395        21.57015        -2.85307
H         21.24577        21.61763        -3.21688
O         20.94548        37.65803         1.99746
H         20.51064        36.85571         2.37190
O         29.48269         8.05440        -2.28981
H         29.78220         7.13835        -2.49589
O         34.15968        34.00213         2.54430
H         33.86454        33.07506         2.73863
O         23.33588         8.26582         0.90937
H         22.65233         7.86366         1.48779
O         18.27116        36.40493        -1.90018
H         17.39843        36.77666        -2.17734
O          6.01635        23.26014         3.09023
H          6.85039        23.73277         3.33255
O         18.61179        14.04773        -2.96406
H         19.31791        13.83610        -3.61706
O         32.12342        16.79245         2.84351
H         32.24387        15.85200         3.10802
O         13.14932        27.69584        -2.30376
H         12.24866        27.37832        -2.57029
O         25.71739        33.40447        -2.64537
H         26.61004        33.10495        -2.95089
O         32.44209        31.61220        -1.64389
H         32.28442        30.78874        -2.19267
O         29.91908        18.01301        -0.99262
H         29.84333        18.86855        -1.46656
O         26.10956        18.76596        -2.24288
H         26.68484        19.52087        -2.51929
O         23.47801        16.71225         0.70466
H         24.01612        17.14050         1.40491
H          5.03090        18.47811         1.22399
H          3.75439        20.64802         0.88181
H          3.71471        23.04874         1.30358
H          4.93124        25.21830         0.96505
H          7.45783        14.24702         1.09392
H          6.24916        16.38349         1.17071
H          6.05979        27.30051         0.41035
H          7.44593        29.51470         0.71520
H          9.85251         9.84492         0.63099
H          8.63249        12.01154         0.91717
H          8.65069        31.64812         0.61171
H          9.86183        33.79562         0.48766
H         12.50422         5.51735         0.92501
H         11.19872         7.59148         0.72629
H         11.08763        35.96454         0.41172
H         12.31733        38.12235         0.04084
H         14.66194         4.33288         0.89132
H         14.42193        39.38985         0.21833
H         17.11061         4.34377         0.64845
H         17.03668        39.36262         0.60525
H         19.61026         4.32493         0.31481
H         19.45379        39.35533         0.58183
H         22.03181         4.39335         0.27651
H         21.95284        39.38501        -0.08096
H         24.43861         4.48518         0.54166
H         24.34603        39.42821        -0.49630
H         26.90114         4.63217         0.93839
H         26.96053        39.47433        -0.40316
H         29.30865         4.60258         1.11807
H         29.39187        39.49112        -0.00355
H         34.01568         5.75149         1.21937
H         31.85982         4.57595         1.41405
H         33.98727        38.23340         0.78405
H         31.91553        39.46784         0.33212
H         35.32785         7.76116         0.57150
H         36.52708         9.82687        -0.14218
H         36.53640        33.89524         0.83089
H         35.21317        36.13004         0.95369
H         37.75185        12.08614        -0.49357
H         38.99891        14.26466        -0.30314
H         39.01028        29.61235         0.84653
H         37.78799        31.73627         0.81986
H         40.16738        16.35456        -0.33842
H         41.45875        18.52894         0.10572
H         41.47909        25.19841         0.97013
H         40.30986        27.31850         1.18294
H         42.69028        20.61922         0.63037
H         42.69012        23.07642         0.84910
