         404
 CSIRO Nanostructure Databank - Neutral Graphene Oxide Data Set
C          1.54841         1.93331         1.58539
C          1.53299         3.34045         1.62036
C          2.71577         1.25120         1.30810
C          2.69779         4.09317         1.41219
C          1.47245         6.26970         1.36967
C          1.47217         7.67111         1.42310
C          2.65866         5.54017         1.38222
C          2.66037         8.42673         1.37240
C          1.46182        10.58176         1.76791
C          1.43745        11.96967         1.82221
C          2.62693         9.88089         1.40087
C          2.56895        12.73568         1.48072
C          1.41477        14.93705         1.89158
C          1.44192        16.34689         2.03708
C          2.51324        14.19183         1.46838
C          2.57632        17.10367         1.76344
C          2.72316        18.49504         2.09581
C          3.92946         1.96499         1.07544
C          3.93940         3.40103         1.16865
C          5.11473         1.27961         0.76777
C          5.15608         4.09774         0.96894
C          3.92766         6.29132         1.44738
C          3.91114         7.75778         1.25536
C          5.22639         5.54166         1.29220
C          5.09541         8.45880         0.90913
C          3.80453        10.61513         1.08772
C          3.76450        12.04156         1.09985
C          5.03004         9.91350         0.77302
C          4.95678        12.77131         0.76317
C          3.67626        14.91234         0.94233
C          3.70982        16.45459         1.09981
C          4.95211        14.19197         0.76503
C          5.00518        17.13501         1.11667
C          3.89345        19.17278         1.87481
C          5.09229        18.50705         1.40471
C          6.30395         1.97831         0.46632
C          6.32096         3.41686         0.54683
C          7.48335         1.28286         0.12115
C          7.50116         4.13820         0.14797
C          6.51852         6.31720         1.03930
C          6.30354         7.75927         0.60745
C          7.52329         5.57390         0.18767
C          7.42431         8.43403         0.06609
C          6.16930        10.63576         0.42006
C          6.14915        12.07111         0.41791
C          7.49486         9.93357         0.22672
C          7.30512        12.82228         0.05663
C          6.13064        14.91084         0.52326
C          6.21133        16.35807         0.84919
C          7.30466        14.21845         0.13852
C          7.47821        17.13732         0.61398
C          6.30323        19.23359         1.17643
C          7.46955        18.61600         0.67958
C          8.65459         1.97685        -0.23916
C          8.63612         3.41823        -0.30447
C          9.85232         1.28187        -0.52144
C          9.78820         4.10312        -0.81444
C          8.56776         6.29530        -0.39393
C          8.55622         7.72738        -0.40149
C          9.67032         5.56143        -1.06739
C          9.67470         8.44687        -1.08695
C          8.39919        10.64820        -0.76182
C          8.42299        12.12588        -0.63409
C          9.62592         9.92732        -1.26022
C          9.75796        12.78902        -0.62401
C          8.47906        14.99740        -0.34377
C          8.56028        16.47840        -0.16568
C          9.78132        14.28610        -0.42587
C          9.85534        17.17895        -0.25185
C          8.66603        19.28205         0.35799
C          9.87027        18.59201        -0.03379
C         11.03128         1.97414        -0.85911
C         10.96420         3.40208        -1.07395
C         12.26169         1.28890        -0.99259
C         12.19916         4.07616        -1.52774
C         10.91733         6.32358        -1.50639
C         10.98837         7.77675        -1.26792
C         12.19999         5.57906        -1.70795
C         12.17668         8.47379        -1.44754
C         10.90185        10.71060        -1.64063
C         10.96883        12.11919        -1.09361
C         12.20217         9.94222        -1.39024
C         12.15667        12.83295        -1.09947
C         11.00513        15.01815        -0.75911
C         11.02190        16.47772        -0.63921
C         12.15633        14.27552        -0.94188
C         12.22541        17.18938        -0.81910
C         11.08949        19.28083        -0.21544
C         12.27421        18.59790        -0.60120
C         13.49594         1.97876        -1.13484
C         13.48870         3.40332        -1.28987
C         14.72895         1.29274        -1.13077
C         14.68803         4.13980        -1.27592
C         13.47033         6.32825        -1.55723
C         13.42175         7.72610        -1.60453
C         14.69869         5.58851        -1.38467
C         14.67689         8.46483        -1.80486
C         13.38272        10.65471        -1.39932
C         13.42551        12.11706        -1.28526
C         14.61925         9.98914        -1.96072
C         14.62946        12.79313        -1.22755
C         13.44063        15.01398        -0.90816
C         13.42630        16.45693        -1.35996
C         14.70792        14.25189        -1.02100
C         14.74277        17.14708        -1.11641
C         13.52183        19.27137        -0.73937
C         14.74310        18.56393        -0.94021
C         15.95421         1.99834        -1.15464
C         15.92859         3.44049        -1.13450
C         17.19251         1.31167        -1.17070
C         17.14443         4.15466        -0.96011
C         15.91316         6.27392        -1.16563
C         15.96637         7.71201        -1.48867
C         17.13157         5.59245        -0.86170
C         17.12303         8.48959        -0.95531
C         15.94822        10.68062        -1.63201
C         15.91742        12.05847        -0.99502
C         17.20244         9.93656        -1.32740
C         17.19690        12.84661        -1.18419
C         15.97096        14.98612        -1.25394
C         15.95803        16.41755        -1.19328
C         17.19426        14.26493        -1.24124
C         17.20827        17.12620        -1.16430
C         15.98453        19.24576        -0.90949
C         17.20654        18.55188        -1.02849
C         18.41804         2.01351        -1.10009
C         18.37391         3.43927        -0.93620
C         19.68132         1.37104        -1.12672
C         19.58910         4.14998        -0.74924
C         18.33442         6.28372        -0.48746
C         18.30498         7.77965        -0.34518
C         19.51710         5.53252        -0.36375
C         19.57188         8.57993        -0.30676
C         18.40080        10.71630        -0.94724
C         18.42033        12.11649        -1.04081
C         19.63929         9.94659        -0.86970
C         19.66957        12.84128        -0.87489
C         18.44692        14.98934        -1.18584
C         18.45181        16.42953        -1.19918
C         19.64441        14.27487        -0.95434
C         19.69020        17.15064        -1.19562
C         18.44674        19.23960        -0.92427
C         19.68558        18.59524        -1.01346
C         20.89173         2.09867        -1.00369
C         20.84327         3.51557        -0.82144
C         22.15693         1.44820        -0.97240
C         22.12211         4.33248        -0.87007
C         20.73958         6.02947         0.21878
C         20.69631         8.12668         0.32082
C         22.00644         5.63461        -0.12168
C         22.03536         8.65383         0.17759
C         20.93809        10.71874        -0.65975
C         20.87662        12.18180        -0.59937
C         22.10860        10.03116        -0.09944
C         22.08491        12.88618        -0.26494
C         20.87491        14.98238        -0.83040
C         20.89640        16.37387        -1.12821
C         22.08211        14.32273        -0.44574
C         22.17768        16.94964        -1.29727
C         20.85576        19.39728        -0.67943
C         22.15447        19.08596        -1.04726
C         23.34858         2.14359        -0.62876
C         23.34112         3.56653        -0.41812
C         24.55507         1.44204        -0.44791
C         24.47562         4.25801         0.03652
C         23.20727         6.39775         0.22415
C         23.20868         7.85658         0.35290
C         24.41621         5.69265         0.28797
C         24.45042         8.57982         0.43764
C         23.29703        10.75097         0.15835
C         23.25646        12.19244         0.10719
C         24.46053        10.00320         0.47092
C         24.43163        12.94891         0.58009
C         23.27059        15.07092        -0.28804
C         23.33943        16.42177        -0.71804
C         24.43505        14.44414         0.35182
C         24.56860        17.21337        -0.60957
C         23.41899        19.50616        -0.55380
C         24.58702        18.69505        -0.61409
C         25.74789         2.12199        -0.11318
C         25.72640         3.54116         0.15256
C         26.96443         1.41184        -0.05787
C         26.94894         4.20107         0.41605
C         25.63274         6.40949         0.72404
C         25.69408         7.87430         0.59275
C         26.95696         5.63793         0.78072
C         26.93715         8.54887         0.61918
C         25.72213        10.70423         0.79237
C         25.73891        12.22569         0.80830
C         26.99425         9.98477         0.60620
C         27.02102        12.89133         0.50819
C         25.74379        15.17079         0.28126
C         25.73472        16.53598        -0.29507
C         27.04254        14.35752         0.36213
C         27.03542        17.20202        -0.48940
C         25.82674        19.34865        -0.39993
C         27.06975        18.67648        -0.39781
C         28.18779         2.07531         0.15548
C         28.17769         3.50099         0.36827
C         29.41171         1.36352         0.13012
C         29.42668         4.19031         0.53573
C         28.20498         6.40001         0.66283
C         28.18675         7.81835         0.64837
C         29.43665         5.65329         0.60845
C         29.40722         8.56988         0.62784
C         28.20198        10.70088         0.52931
C         28.21701        12.15750         0.43137
C         29.44935         9.97722         0.51641
C         29.47878        12.84619         0.24997
C         28.31226        14.98919        -0.01235
C         28.31472        16.42701        -0.35856
C         29.48882        14.27094         0.05559
C         29.56757        17.18740        -0.22877
C         28.30323        19.32516        -0.35352
C         29.54937        18.61256        -0.31933
C         30.64203         2.02891         0.28986
C         30.61911         3.45211         0.52556
C         31.87954         1.32973         0.22345
C         31.91272         4.11737         0.70168
C         30.63758         6.34773         0.63292
C         30.65754         7.81463         0.76578
C         31.91621         5.63438         0.73987
C         31.95285         8.56929         0.59616
C         30.70280        10.70163         0.35356
C         30.71486        12.12617         0.19249
C         31.93497        10.00733         0.29194
C         31.97022        12.79546        -0.07740
C         30.79062        15.01643         0.24824
C         30.77500        16.46624        -0.19118
C         32.01477        14.24781        -0.18744
C         31.97909        17.15721        -0.34916
C         30.78196        19.29796        -0.29085
C         31.99800        18.58347        -0.32868
C         33.13238         2.00379         0.19098
C         33.13351         3.41197         0.29502
C         34.38674         1.28959         0.18054
C         34.35528         4.16196         0.04956
C         33.13264         6.32546         0.22665
C         33.14262         7.80805         0.12616
C         34.41795         5.61333         0.27001
C         34.43757         8.49860         0.18351
C         33.16575        10.65100        -0.00854
C         33.16099        12.05197        -0.24055
C         34.43511         9.93474         0.04882
C         34.41684        12.71074        -0.69907
C         33.18472        14.93398        -0.39801
C         33.21553        16.40501        -0.75621
C         34.42571        14.21078        -0.73508
C         34.50086        17.09297        -0.35303
C         33.25886        19.24329        -0.23718
C         34.46476        18.52973        -0.13577
C         35.61786         1.93627         0.24356
C         35.67635         3.39223         0.01433
C         36.86312         1.27312         0.46784
C         36.89751         4.15066         0.31812
C         35.61333         6.30626         0.32572
C         35.59687         7.75945         0.34423
C         36.88248         5.57685         0.38763
C         36.83152         8.50406         0.62423
C         35.66678        10.59855        -0.06194
C         35.75655        11.94506        -0.73458
C         36.88396         9.92981         0.25339
C         36.99164        12.73476        -0.29664
C         35.73914        14.95973        -0.70704
C         35.69649        16.40927        -0.35213
C         37.03659        14.19674        -0.56400
C         36.92033        17.06904         0.08083
C         35.67165        19.20619         0.14462
C         36.88167        18.51160         0.30457
C         38.06360         1.97751         0.55846
C         38.08832         3.42878         0.51578
C         39.31801         1.29023         0.73138
C         39.32338         4.13235         0.63150
C         38.09919         6.26279         0.55326
C         38.12208         7.72580         0.74823
C         39.33667         5.56015         0.59895
C         39.38074         8.45761         0.56548
C         38.11411        10.60845         0.28943
C         38.13701        12.05283         0.08614
C         39.35108         9.87905         0.49138
C         39.38697        12.76451         0.36421
C         38.32245        14.98427        -0.26714
C         38.07402        16.35339         0.34572
C         39.41908        14.17629         0.39533
C         39.23913        17.06542         0.90397
C         38.07175        19.21662         0.58300
C         39.28060        18.53837         0.81965
C         40.50017         1.96979         0.82222
C         40.54467         3.40820         0.76662
C         41.75098         4.12480         0.84144
C         40.58217         6.26856         0.65443
C         40.59621         7.73200         0.56875
C         41.76521         5.52046         0.77640
C         41.80157         8.46515         0.51721
C         40.58532        10.58279         0.54828
C         40.57563        12.03661         0.64133
C         41.79054         9.85355         0.53879
C         41.74253        12.73183         1.01463
C         40.59173        14.84878         0.79025
C         40.57446        16.32005         1.02820
C         41.73919        14.11404         1.12961
C         41.78039        17.12787         0.90505
C         40.49978        19.20406         1.01337
C         41.72581        18.50103         1.00176
O         27.70278        16.66276        -1.70495
O         26.46820        15.09804         1.53836
O         14.16244        14.70940         0.32506
O         25.70513        11.46308         2.05746
O         16.88243        10.38327        -2.70708
O         20.56422        10.16489        -1.99007
O         22.26801        18.10201        -2.06170
O         30.91825        15.07069         1.66577
O          8.15560        15.88339        -1.46291
O          3.38250        15.80771        -0.17986
O         17.21971         8.31077         0.50096
O          9.22020         9.05513        -2.37292
O         20.58099         7.03330         1.18029
O          9.95695        13.38651         0.71749
O         24.12236        13.88824         1.66567
O         34.23020        13.42860        -1.97551
O          7.25033        16.53306         1.92512
O         36.52693        14.60494        -1.89652
O         37.38790         8.17878         1.95109
O          7.87785        11.47715        -1.83872
O         26.18742         5.91981         1.99904
O         32.88591         6.99911        -1.07461
O          4.72535         5.83993         2.64326
O         15.55604         7.93664        -2.86510
O         32.09745         4.88070         1.97210
O         39.73169        16.59397         2.20683
O         31.49712         8.23215         1.93768
O         12.15726         4.69961        -2.87057
O         35.01954         3.79612        -1.22595
O          9.87406         5.95687        -2.46499
O         10.86786        10.87589        -3.08190
H         10.39514        10.09054        -3.44819
O         38.92650        15.32978        -1.55593
H         38.18400        15.37163        -2.20691
O          7.18740         6.44648         2.34403
H          6.46509         6.42555         3.01816
O         15.88508        11.74697         0.45008
H         15.64891        12.57228         0.92824
O         14.42168        10.21688        -3.38333
H         15.17991         9.78361        -3.83961
O         36.01201        11.61901        -2.13367
H         35.75304        12.42234        -2.64682
O         22.34999         4.64424        -2.29491
H         22.39954         3.79061        -2.77547
O          8.23125        10.10960         1.49336
H          7.77948         9.57490         2.18139
O         13.25062        16.38157        -2.81908
H         13.16958        17.29795        -3.15851
O         33.18720        16.42576        -2.22787
H         33.79597        15.72673        -2.55323
H          0.61560         1.38122         1.76561
H          0.58030         3.84746         1.82414
H          2.72418         0.15325         1.25532
H          0.50414         5.75198         1.33888
H          0.50191         8.18367         1.44914
H          0.55139        10.03229         2.04163
H          0.50581        12.46730         2.12244
H          0.50324        14.41977         2.22251
H          0.56063        16.84199         2.47066
H          1.85616        19.02416         2.51848
H          5.11143         0.18041         0.72809
H          3.95446        20.24540         2.10962
H          7.48391         0.18317         0.12593
H          6.29854        20.32190         1.33878
H          9.87565         0.18668        -0.42338
H          8.70966        20.37710         0.46016
H         12.27507         0.19511        -0.87748
H         11.12820        20.36722        -0.04721
H         14.73705         0.19416        -1.08361
H         13.56149        20.35960        -0.58514
H         17.19607         0.21312        -1.22571
H         15.99697        20.33695        -0.76880
H         19.72436         0.27692        -1.23479
H         18.42448        20.32435        -0.74172
H         22.20278         0.35753        -1.10610
H         20.68096        20.27593        -0.04026
H         24.58228         0.35430        -0.60821
H         23.51909        20.51072        -0.11427
H         26.96132         0.32603        -0.23294
H         25.82517        20.44548        -0.30797
H         29.39752         0.27851        -0.04918
H         28.33115        20.42529        -0.34591
H         31.86001         0.23385         0.13036
H         30.79690        20.39735        -0.27184
H         34.35396         0.19195         0.25208
H         33.28147        20.33962        -0.14346
H         36.87337         0.17669         0.56134
H         35.65747        20.29836         0.27658
H         39.30828         0.19132         0.77729
H         38.04911        20.31618         0.61542
H         41.44557         1.42075         0.94265
H         42.69927         3.57778         0.94373
H         42.73560         6.03207         0.83142
H         42.76885         7.94605         0.49707
H         42.75272        10.38262         0.53148
H         42.65885        12.18133         1.26391
H         42.64358        14.63467         1.47294
H         42.73621        16.63270         0.68169
H         40.51029        20.30316         1.04147
H         42.66107        19.07868         0.97815
