         280
 CSIRO Nanostructure Databank - Neutral Graphene Oxide Data Set
C         30.38845        31.76176        -0.11742
C         30.47074        32.97448        -0.40471
C         30.59754        36.03452        -1.17501
C         30.53646        37.22023        -1.51038
C         30.59592        40.44205        -1.17759
C         30.70794        41.69506        -1.20302
C         32.63618        28.86559         0.53437
C         31.58582        29.48005         0.28913
C         32.74256        31.44412        -0.43141
C         31.50555        30.86321        -0.08007
C         32.79298        32.87352        -0.86992
C         31.59088        33.75618        -0.77454
C         32.94933        35.80594        -1.19544
C         31.68643        35.10398        -1.07513
C         33.04632        37.29362        -1.58904
C         31.69731        38.08431        -1.71741
C         33.00924        40.22895        -1.09557
C         31.72699        39.55178        -1.52769
C         33.09423        41.70993        -1.31744
C         31.81696        42.54056        -1.28962
C         33.22677        44.46467        -1.58392
C         32.12217        43.90567        -1.36928
C         35.47642        27.29067         1.20103
C         35.15748        28.74897         1.04898
C         34.00902        29.20727         0.19164
C         35.31899        31.43472        -0.15667
C         34.02958        30.67801        -0.34652
C         35.37552        32.87070        -0.60469
C         34.12346        33.63487        -0.92852
C         35.36471        35.84163        -0.61876
C         34.13984        35.12245        -0.90957
C         35.41170        37.37160        -0.67521
C         33.97914        37.98113        -0.53004
C         35.16064        40.28662         0.14875
C         34.05103        39.51522        -0.59773
C         35.61713        41.55996        -0.68658
C         34.43012        42.38518        -1.22920
C         35.08567        44.38659         0.13195
C         34.60119        43.94963        -1.25231
C         35.27211        45.86581         0.29503
C         37.79909        27.41274         2.04948
C         36.50296        26.76317         1.62493
C         37.67631        28.83833         1.43824
C         36.52738        29.30749         0.52575
C         37.65199        31.66155         0.77221
C         36.44251        30.83490         0.33652
C         37.79680        33.03186         0.17495
C         36.59866        33.68934        -0.36725
C         37.76845        35.84281         0.02196
C         36.54157        35.16761        -0.31675
C         37.73608        37.26665         0.37393
C         36.35118        37.91648         0.41050
C         37.73998        40.18598         0.64917
C         36.42271        39.46133         0.48934
C         37.76766        41.71420         0.77002
C         36.57914        42.39195         0.13136
C         37.70273        44.48162         0.66933
C         36.49126        43.74901         0.33952
C         37.69196        45.92953         0.70654
C         36.35987        46.41486         0.46961
C         40.31123        24.63596         1.87920
C         39.18343        25.28784         2.02610
C         40.24995        27.29217         1.09542
C         39.07188        26.63654         1.66817
C         40.55508        28.60929         1.38263
C         38.72485        29.66441         1.58023
C         40.23026        31.64946         1.03986
C         38.95099        30.83695         0.66969
C         40.27775        32.93435         0.17974
C         38.98423        33.71053         0.16860
C         40.24896        35.88542         0.10311
C         38.99366        35.16255         0.06513
C         40.29695        37.28059         0.15852
C         39.04632        38.02172         0.41714
C         40.33117        40.21368         0.33982
C         38.99928        39.50723         0.08004
C         40.32821        41.71956         0.01650
C         39.05864        42.43672         0.44011
C         40.23539        44.63706         0.57841
C         38.98742        43.80510         0.61672
C         40.17088        46.02508         1.21294
C         38.83425        46.69058         0.83755
C         39.94745        48.88643         0.96039
C         38.98962        48.09424         0.86036
C         42.50252        24.69588         1.28671
C         41.50861        24.03809         1.88553
C         42.49130        27.27348        -0.26256
C         41.12884        26.62596         0.08829
C         42.58371        28.72953         0.09465
C         41.56898        29.40079         0.72613
C         42.67553        31.57369         0.53501
C         41.53598        30.87445         0.79967
C         42.71814        33.04241         0.90386
C         41.50028        33.78115         0.39999
C         42.79159        35.81623        -0.16464
C         41.49088        35.12030         0.15851
C         42.72679        37.32431        -0.08383
C         41.55186        38.02907         0.10859
C         42.79151        40.30338         0.17823
C         41.50144        39.50530         0.26359
C         42.71763        41.74707         0.63729
C         41.58623        42.45964         0.46967
C         42.90869        44.74518         0.68509
C         41.57469        43.95689         0.49820
C         42.74226        46.16940         1.36305
C         41.42786        46.88401         0.84089
C         42.53803        49.10916         0.80994
C         41.32095        48.42247         1.38333
C         43.60176        25.31309         0.91263
C         44.99357        27.24095         0.11028
C         43.73117        26.54504         0.30922
C         45.07822        28.63253        -0.05588
C         43.82744        29.45081        -0.33326
C         45.10377        31.62836        -0.33725
C         43.97619        30.81999         0.36325
C         45.28705        33.01877         0.22915
C         44.05644        33.75297         0.67260
C         45.29941        35.92814         0.29644
C         43.98160        35.27927         0.68354
C         45.31177        37.28448         0.07773
C         44.05615        37.85885        -0.51882
C         45.29904        40.32376         0.53830
C         43.99494        39.69618         0.91541
C         45.28167        41.68142         0.62166
C         44.00722        42.33787         1.15882
C         45.26819        44.39617         1.55139
C         44.05604        43.84921         1.18379
C         45.23192        46.71613         1.49524
C         44.01274        47.10847         1.02925
C         43.55234        48.39999         0.67628
C         47.32940        27.24063        -0.32821
C         46.30159        26.63605         0.12350
C         47.58736        28.57766        -0.56622
C         46.38196        29.34874        -0.16684
C         47.61399        31.59176        -0.78099
C         46.43171        30.86540        -0.25487
C         47.67064        33.01411        -0.61918
C         46.52465        33.72846        -0.16283
C         47.79899        35.94389        -0.21761
C         46.56016        35.15687         0.18478
C         47.72578        37.41811        -0.32772
C         46.54008        38.06124        -0.07164
C         47.71203        40.34168        -0.11076
C         46.57933        39.48487         0.50022
C         47.79265        41.67873         0.69256
C         46.52044        42.53259         0.37717
C         47.68706        44.63266         0.93585
C         46.55653        43.84478         1.16502
C         47.48755        46.03983         1.09375
C         46.60749        46.92099         1.11373
C         50.06572        28.75464        -1.06275
C         48.67041        29.22710        -1.37596
C         50.15598        31.57121        -1.14608
C         48.77402        30.81979        -1.22449
C         50.14716        33.03596        -0.84676
C         48.94313        33.72032        -0.75122
C         50.20206        35.97213        -0.45266
C         48.93117        35.23608        -0.94636
C         50.26775        37.39997        -1.07332
C         48.90337        38.22031        -0.91463
C         50.19530        40.33637        -0.33330
C         49.04192        39.60614        -0.25102
C         50.16561        41.81008        -0.32521
C         49.06210        42.47703         0.40849
C         49.99469        44.57729        -0.35494
C         48.96526        44.00592         0.51221
C         51.13753        29.37349        -1.04526
C         52.52883        31.55920        -0.73020
C         51.42708        30.76365        -0.96699
C         52.46790        32.83275        -0.65320
C         51.42901        33.75233        -0.70461
C         52.63878        35.94972        -0.42942
C         51.50057        35.16888        -0.60624
C         52.47560        37.24853        -0.35286
C         51.52491        38.17948        -0.52803
C         52.27595        40.47057        -1.50210
C         51.58965        39.66410        -0.39337
C         52.19805        41.71634        -1.51986
C         51.15209        42.55213        -0.99668
C         50.96611        43.96699        -0.84182
O         39.83071        29.27048         2.38170
O         34.17990        29.48307        -1.19313
O         38.88547        39.61033        -1.32897
O         49.54675        43.20865         1.59723
O         37.00386        39.69641         1.82501
O         33.94932        41.93635        -2.52841
O         45.19990        45.57171         2.31312
O         40.89833        44.50270        -0.69938
O         48.49728        38.53126        -2.22226
O         43.89309        38.93137         1.86816
O         49.45514        31.31943        -2.41464
O         45.02383        33.23659         1.65759
O         46.70851        30.22964         1.02477
O         47.62197        35.48556         1.15233
O         33.49308        33.08829        -2.13229
O         44.17716        38.43443        -1.59398
O         38.42418        37.56314         1.65400
O         40.78588        25.65075        -0.56438
O         36.33254        33.09016        -1.71022
O         31.70296        38.97974        -2.86439
O         40.11051        32.04896         2.41705
H         40.43395        31.31379         2.98246
O         48.35433        28.98565        -2.73593
H         48.92695        29.57314        -3.28141
O         35.57709        44.28103        -2.20360
H         35.32221        43.89683        -3.06857
O         41.46596        47.03120        -0.56778
H         42.03047        46.32396        -0.96734
O         46.48523        43.00430        -0.98314
H         46.56210        42.21286        -1.57694
O         50.05096        36.12683         0.97352
H         50.89727        36.45702         1.34374
O         47.75823        41.42874         2.10173
H         48.43384        42.00863         2.52482
O         40.32867        41.75249        -1.43862
H         39.68811        41.02513        -1.72755
O         35.99755        37.79443        -1.91072
H         35.42184        37.47347        -2.64812
O         42.67605        45.97774         2.75736
H         42.50391        46.84191         3.19362
O         33.37404        37.63509         0.72439
H         34.05963        37.70430         1.43570
O         43.97916        41.96231         2.58294
H         44.86074        42.14994         2.97151
O         46.84866        39.18746         1.88985
H         46.01481        38.84546         2.28556
O         34.18644        43.84474         1.07774
H         34.44208        44.13789         1.97639
O         43.75073        29.58297        -1.77847
H         43.39345        28.72778        -2.13295
O         47.30296        40.66123        -1.45479
H         47.59045        39.88745        -2.03689
O         40.09736        45.81695         2.63199
H         40.18839        46.68674         3.08102
O         35.79428        37.48604         1.67818
H         36.46461        37.72452         2.36190
O         52.27111        39.92526         0.82188
H         52.33847        40.89540         0.94640
O         36.37681        41.09280        -1.80641
H         35.75275        40.89231        -2.53939
O         42.59724        27.15722        -1.70981
H         42.10023        26.33724        -1.95222
O         42.55430        33.06539         2.35870
H         42.70450        33.99973         2.64245
O         41.37668        48.42669         2.79536
H         41.42477        49.35397         3.11137
O         48.72604        35.37570        -2.36016
H         49.38803        36.01703        -2.73026
O         37.41361        31.90365         2.19269
H         38.27106        32.20984         2.58557
O         39.08360        30.28545        -0.66028
H         39.45427        30.99910        -1.24360
O         37.64759        42.04180         2.20285
H         37.34093        41.22756         2.66830
O         43.10285        40.48385        -1.22626
H         42.29065        40.83813        -1.65973
O         37.81477        27.54913         3.46796
H         38.02810        26.67418         3.85776
O         43.69574        35.65209         2.05539
H         44.50084        35.47241         2.58798
O         33.64449        37.31544        -2.89614
H         33.15129        37.96784        -3.44956
O         36.74309        28.73918        -0.77217
H         37.56298        29.14468        -1.14112
O         40.44544        32.46447        -1.21003
H         40.45704        33.25059        -1.79846
O         44.81123        31.91679        -1.71336
H         44.49198        31.09902        -2.16677
O         43.34924        45.07218        -0.66471
H         43.32317        44.26192        -1.21735
O         34.56308        40.74335         1.37015
H         35.20790        40.58626         2.09692
O         34.89476        29.27600         2.34264
H         35.57124        28.94010         2.96934
O         50.53412        37.27701        -2.46558
H         49.91864        37.94840        -2.89687
O         43.08612        35.45372        -1.54650
H         43.18039        36.26865        -2.08646
O         44.36599        30.51254         1.71554
H         44.53937        31.36635         2.18069
