         671
 CSIRO Nanostructure Databank - Neutral Graphene Oxide Data Set
C          6.17601        31.51566        -1.25338
C          6.21930        32.85265        -1.50692
C          8.44055        27.30506         0.41033
C          8.32779        28.80587         0.47093
C          7.26883        29.46793        -0.37969
C          8.48628        31.61810        -0.39390
C          7.30630        30.81869        -0.66668
C          8.56144        32.96821        -0.69924
C          7.40869        33.64274        -1.26388
C          8.69180        35.74316        -1.44496
C          7.47760        34.98376        -1.59610
C          8.73572        37.10586        -1.73748
C         10.80357        23.08269         1.27263
C         10.75463        24.50805         1.34669
C          9.61740        25.21960         1.00873
C         10.78954        27.41768         1.15294
C          9.59492        26.66205         0.84359
C         10.83939        28.80923         0.98255
C          9.68218        29.46037         0.30816
C         10.80101        31.74053         0.67362
C          9.72160        30.91502         0.01045
C         10.94813        33.10441         0.04137
C          9.80903        33.71326        -0.53681
C         11.09743        35.79936        -0.84178
C          9.87178        35.06845        -0.95765
C         11.13678        37.16419        -1.24576
C          9.95098        37.86815        -1.63821
C         11.21426        40.08173        -2.02119
C          9.96792        39.24549        -1.92166
C         11.09311        41.47446        -1.41310
C         13.22042        18.82282         0.86332
C         13.18320        20.22065         1.06115
C         11.98874        20.94920         1.17446
C         13.15356        22.94401         2.19632
C         11.98812        22.35608         1.41087
C         13.26096        24.58590         2.14301
C         12.07414        25.24396         1.39364
C         13.27116        27.42259         1.48196
C         11.96207        26.72776         1.80982
C         13.27461        28.84483         1.43523
C         12.02294        29.54153         1.19694
C         13.36096        31.71999         0.95237
C         12.09213        30.95903         0.78184
C         13.35110        33.23806         0.93150
C         12.15029        33.82947         0.20063
C         13.46235        35.96371         0.10111
C         12.23180        35.15127        -0.24687
C         13.61197        37.10719        -0.85622
C         12.39882        37.91797        -1.11186
C         13.68442        40.18858        -1.53699
C         12.43275        39.38943        -1.43658
C         13.58603        41.68823        -1.43311
C         12.20707        42.23416        -1.12630
C         13.36974        44.39049        -0.65495
C         12.19049        43.64504        -0.85582
C         13.41006        45.78893        -0.77094
C         15.73641        14.59725         0.13004
C         15.69301        15.97358         0.35889
C         14.45987        16.69090         0.48234
C         15.70797        18.78135         0.83831
C         14.41552        18.07249         0.70148
C         15.71251        20.26903         0.97028
C         14.42447        21.07390         0.90074
C         15.72506        23.12120         1.51927
C         14.55920        22.24465         1.92232
C         15.72371        24.51401         1.60219
C         14.50676        25.20956         1.59047
C         15.79015        27.36414         1.54716
C         14.51615        26.65192         1.10165
C         15.77927        28.86015         1.36002
C         14.47953        29.56400         1.54612
C         15.87151        31.69156         1.28080
C         14.52598        31.07091         1.69077
C         15.90950        33.03853         0.79702
C         14.66007        33.67707         0.23876
C         15.97273        35.80787         0.09019
C         14.73917        35.16545         0.18038
C         16.04600        37.08041        -0.54093
C         14.87329        37.47762        -1.24132
C         16.15953        40.17797        -1.11988
C         14.93015        39.63962        -1.65407
C         16.00731        41.55263        -0.56564
C         14.67450        42.22548        -0.52157
C         15.90891        44.43096        -0.37595
C         14.60630        43.69930        -0.10905
C         15.89491        45.80317        -0.56877
C         14.63288        46.52446        -0.71009
C         15.88554        48.66180        -0.89101
C         14.66067        47.91224        -0.86440
C         15.86708        50.05215        -0.99545
C         18.13251        10.45252        -1.01782
C         18.10258        11.82089        -0.80065
C         16.91547        12.52234        -0.42467
C         18.22131        14.59786        -0.19439
C         16.95232        13.89421        -0.17268
C         18.23798        15.90024         0.55621
C         16.95808        16.70062         0.41083
C         18.23182        18.81231         0.46859
C         16.96052        18.05871         0.52702
C         18.25926        20.30459         0.61272
C         16.95891        21.04522         0.67860
C         18.27561        23.15046         1.28323
C         16.97354        22.48950         1.03628
C         18.27533        24.52777         1.50513
C         16.98917        25.25856         1.21451
C         18.18852        27.35280         2.27364
C         16.95315        26.68544         1.68843
C         18.26285        28.78286         1.68139
C         16.97143        29.57258         1.99880
C         18.37089        31.57458         1.04860
C         17.04732        30.99520         1.48741
C         18.37844        33.07275         1.02828
C         17.15660        33.73386         0.74786
C         18.41663        35.84421         0.48461
C         17.20848        35.13744         0.45002
C         18.41707        37.31743         0.31766
C         17.18509        37.97686        -0.30835
C         18.52360        40.12062        -0.41130
C         17.24960        39.41049        -0.72374
C         18.50079        41.62142        -0.32526
C         17.20952        42.33544        -0.31106
C         18.41849        44.45083        -0.35287
C         17.16371        43.72100        -0.27003
C         18.37438        45.81167        -0.67301
C         17.13765        46.52285        -0.72104
C         18.39244        48.62168        -0.99588
C         17.13967        47.92843        -0.86494
C         18.39803        50.10341        -0.95125
C         17.09287        50.85120        -0.95268
C         18.32921        52.96184        -1.45135
C         17.13277        52.27730        -1.33218
C         18.36406        54.40241        -1.56986
C         20.77886         6.38890        -2.39202
C         20.69138         7.78191        -2.07895
C         19.32145         8.42434        -2.03130
C         20.53209        10.58465        -1.82161
C         19.43160         9.71590        -1.21439
C         20.26038        11.98175        -1.86597
C         19.28011        12.62453        -1.11552
C         20.69357        14.69605        -0.53400
C         19.38510        14.01333        -0.69415
C         20.73491        15.98359         0.08826
C         19.50534        16.69753         0.36983
C         20.76013        18.87712         0.51660
C         19.49399        18.05525         0.56305
C         20.66861        20.12213         1.44062
C         19.47759        20.98947         1.08639
C         20.75250        23.03756         1.55300
C         19.48342        22.35415         1.33293
C         20.75965        24.54038         1.35229
C         19.48106        25.24625         1.71456
C         20.70923        27.33498         2.17455
C         19.50066        26.62984         2.00631
C         20.70758        28.79112         2.45451
C         19.46387        29.57158         2.16455
C         20.75211        31.69325         1.86374
C         19.56831        30.98850         1.75262
C         20.81280        33.11230         1.50762
C         19.60166        33.77977         1.09645
C         20.85393        35.92150         0.97526
C         19.63157        35.18611         0.83671
C         20.88951        37.34193         0.74844
C         19.71382        38.03822         0.34103
C         20.91821        40.16749         0.38131
C         19.72161        39.42149         0.13205
C         20.93646        41.61560         0.26878
C         19.63001        42.35760         0.34885
C         20.89725        44.44198        -0.31885
C         19.67141        43.77314        -0.17320
C         20.89661        45.82638        -0.66898
C         19.62945        46.46342        -1.17175
C         20.86674        48.67491        -1.11231
C         19.60596        47.95734        -1.06529
C         20.86958        50.06588        -1.26055
C         19.58396        50.76776        -1.61273
C         20.80649        52.94383        -1.43703
C         19.60396        52.26198        -1.43098
C         20.82714        54.40023        -1.55057
C         19.54719        55.10030        -1.60980
C         20.71613        57.24326        -1.90659
C         19.56819        56.54905        -1.72884
C         20.71888        58.72204        -2.20328
C         23.41801         4.35860        -3.90168
C         22.15025         4.36644        -3.07793
C         23.18934         6.38739        -1.94190
C         21.98083         5.72859        -2.44410
C         23.12969         7.90334        -1.77993
C         21.84055         8.56951        -1.98721
C         23.07617        10.79989        -2.43162
C         21.78202        10.01657        -2.07457
C         23.20248        12.14820        -1.71560
C         22.11447        13.02538        -1.73299
C         23.23797        14.55665        -0.17448
C         21.95560        14.12634        -0.87254
C         23.22633        16.03815         0.12769
C         21.98541        16.65114         0.31653
C         23.23258        18.75210         1.15770
C         21.95029        18.01957         0.87037
C         23.18910        20.23023         1.27226
C         21.98041        20.88657         1.42459
C         23.23295        23.02509         1.69554
C         21.93375        22.32580         1.56078
C         23.25898        24.52471         1.82339
C         21.99227        25.26141         1.80058
C         23.21394        27.37041         2.01396
C         21.98378        26.65993         1.99788
C         23.29664        28.80405         2.30481
C         21.98762        29.56710         2.51268
C         23.20206        31.70282         2.22931
C         21.99352        31.01899         2.23312
C         23.17730        33.20753         2.36883
C         21.99439        33.84295         1.66287
C         23.24632        35.99802         1.60731
C         22.03478        35.24687         1.38687
C         23.26486        37.39016         1.46586
C         22.09201        38.07802         0.99561
C         23.28016        40.29955         1.11871
C         22.08394        39.48672         0.79011
C         23.37496        41.66310         0.52849
C         22.12995        42.33002         0.25195
C         23.37492        44.38927        -0.27780
C         22.15722        43.74856        -0.07400
C         23.35568        45.78690        -0.76399
C         22.08886        46.54684        -0.73250
C         23.33739        48.68126        -0.92805
C         22.10306        47.95376        -0.98105
C         23.30443        50.11132        -0.93752
C         22.07971        50.80629        -1.17304
C         23.27797        52.93956        -1.18656
C         22.06360        52.22532        -1.30179
C         23.34202        54.39349        -1.59324
C         22.00735        55.08797        -1.67769
C         23.14153        57.32027        -1.26864
C         22.05476        56.55916        -2.02837
C         23.05354        58.73959        -1.15675
C         21.88240        59.44931        -1.56376
C         22.89816        61.53759        -0.82665
C         21.81732        60.82350        -1.39244
C         24.52912         4.96742        -3.46890
C         25.69541         6.56393        -1.88694
C         24.51584         5.65897        -2.12158
C         25.63136         7.92281        -1.78253
C         24.37851         8.67729        -1.93235
C         25.70391        10.71357        -2.48860
C         24.36853        10.01325        -2.19379
C         25.61664        12.29115        -2.35142
C         24.48300        12.76722        -1.43809
C         25.68291        14.87824        -0.94014
C         24.47276        14.03207        -0.88063
C         25.68895        16.23548        -0.29562
C         24.44141        16.77305         0.29630
C         25.71394        18.83849         0.76977
C         24.47904        18.09070         0.74919
C         25.69025        20.24816         0.92944
C         24.44786        20.95440         1.12878
C         25.61681        23.13455         0.73502
C         24.44407        22.34062         1.23255
C         25.65182        24.59354         1.13995
C         24.50058        25.24906         1.47211
C         25.65599        27.51221         1.20674
C         24.40434        26.72093         1.44395
C         25.71692        28.92729         1.65296
C         24.48798        29.59790         1.99045
C         25.69512        31.73083         2.16212
C         24.46757        31.00185         2.18015
C         25.72627        33.14826         2.17110
C         24.49005        33.90447         2.09803
C         25.72311        36.02902         1.97130
C         24.48215        35.28200         1.91836
C         25.76245        37.41475         1.90720
C         24.44200        38.14751         2.08534
C         25.79763        40.41604         1.78792
C         24.46684        39.65172         1.75546
C         25.79916        41.65184         0.87879
C         24.59173        42.32230         0.43280
C         25.86924        44.35847        -0.24711
C         24.65070        43.71712        -0.05266
C         25.98668        45.78467        -0.87595
C         24.65249        46.54473        -0.94302
C         25.69456        48.76761        -0.28757
C         24.58523        48.01568        -0.75182
C         25.64748        50.16361        -0.21051
C         24.48340        50.85937        -0.65619
C         25.68867        53.05046        -0.52638
C         24.44944        52.27924        -0.78976
C         25.54201        54.51142        -0.24593
C         24.28402        55.18683        -0.69508
C         25.38409        57.38004        -0.23921
C         24.26386        56.66176        -0.77269
C         25.30870        58.76938        -0.15903
C         24.14315        59.46302        -0.57235
C         24.04074        60.87601        -0.42829
C         26.82131         8.70107        -1.51993
C         28.07120        10.76847        -1.51627
C         26.85071        10.04903        -1.74955
C         28.17145        12.12543        -1.64322
C         27.01985        13.00172        -2.07902
C         28.15690        14.83302        -0.76189
C         26.96933        14.21755        -1.16226
C         28.16526        16.08708        -0.06148
C         26.97628        16.81937         0.15256
C         28.19267        18.83480         1.18293
C         26.95420        18.14053         0.64493
C         28.20509        20.31201         0.87143
C         26.93287        21.01028         0.90884
C         28.18020        23.17384         1.08840
C         26.90873        22.39356         0.90441
C         28.06793        24.61644         0.66672
C         26.89361        25.31528         0.87187
C         28.11692        27.45189         1.08206
C         26.92029        26.77034         1.00803
C         28.21261        28.80164         1.76456
C         26.92039        29.57211         1.77404
C         28.21977        31.72828         1.89509
C         26.98720        30.97089         2.33272
C         28.22679        33.12686         2.02112
C         26.97728        33.82194         2.21303
C         28.24451        36.04767         2.46614
C         26.93765        35.28683         2.35082
C         28.24489        37.42292         1.95026
C         27.02634        38.12203         1.82234
C         28.21845        40.21968         1.34639
C         27.02762        39.54667         1.54855
C         28.23989        41.63991         1.08028
C         27.00703        42.25051         0.63006
C         28.42670        44.08388        -0.19557
C         27.08992        43.41266        -0.32705
C         28.35963        46.25465        -0.38507
C         27.07534        46.67128        -0.27828
C         28.15029        48.89173         0.28568
C         26.86961        48.04354         0.32831
C         28.09378        50.25163         0.41989
C         26.75086        50.91826         0.50369
C         27.91278        53.19582         0.82489
C         26.86124        52.37327         0.08494
C         28.07937        54.61521         0.22271
C         26.74168        55.32309         0.05190
C         26.61299        56.67684         0.10946
C         29.40833        12.81280        -1.37108
C         30.66927        14.83825        -0.76154
C         29.42552        14.14321        -1.01546
C         30.70340        16.05525        -0.15924
C         29.45869        16.66892         0.35363
C         30.71631        18.89073         0.54619
C         29.49716        18.10188         0.85506
C         30.65214        20.29202         0.46407
C         29.39892        21.00264         0.66693
C         30.54099        23.14379         0.24706
C         29.39254        22.44721         0.55948
C         30.57498        24.63719        -0.07585
C         29.22714        25.39509         0.11486
C         30.53030        27.45614         0.82001
C         29.34850        26.76594         0.78786
C         30.50724        28.95347         0.60920
C         29.36810        29.64386         1.28641
C         30.65991        31.75354         1.30863
C         29.40340        31.02053         1.48253
C         30.67614        33.16914         1.60414
C         29.48474        33.84355         1.91433
C         30.77587        35.99862         2.18181
C         29.53397        35.23370         2.56390
C         30.83238        37.33352         1.88326
C         29.53629        38.02391         1.57125
C         30.73777        40.31182         1.32371
C         29.50691        39.51583         1.26791
C         30.71338        41.68906         1.19651
C         29.43491        42.36070         1.09105
C         30.61695        44.61292         0.98219
C         29.42533        43.75656         0.68024
C         30.59583        46.15830         0.97313
C         29.49103        46.87689         0.23947
C         30.66248        48.98398         0.64303
C         29.43332        48.24011         0.40542
C         30.56978        50.37362         0.72499
C         29.29917        51.05375         0.65041
C         29.21715        52.42318         0.83250
C         32.00050        16.69670         0.27891
C         33.08914        18.92918        -0.01807
C         31.94019        18.21046         0.25302
C         33.09087        20.35704        -0.02909
C         31.84229        21.04790         0.19367
C         33.02629        23.20856        -0.01644
C         31.80036        22.45439         0.13463
C         33.02983        24.59068         0.15840
C         31.75984        25.21116         0.72824
C         33.04810        27.49326         0.45339
C         31.80946        26.72881         0.79628
C         32.98015        28.97578         0.38179
C         31.83282        29.65576         0.75765
C         33.19245        31.70759         1.12306
C         31.85175        31.06003         1.04052
C         33.30460        33.17931         1.46180
C         31.96921        33.85775         1.71803
C         33.69251        36.19242         1.55108
C         31.93675        35.12361         2.24694
C         33.37244        37.50060         1.18977
C         32.11239        38.13623         1.69426
C         33.17235        40.31074         0.76464
C         32.03031        39.61016         1.39809
C         33.12786        41.74794         0.69811
C         31.95152        42.41873         0.93794
C         33.16262        44.65084         0.59880
C         31.94411        43.89874         1.00626
C         33.09561        46.08671         0.49769
C         31.92283        46.83031         0.64843
C         31.89111        48.24716         0.61525
C         34.25910        21.07994        -0.29671
C         35.43612        23.23144        -0.52612
C         34.26898        22.50307        -0.29147
C         35.42064        24.66377        -0.58990
C         34.19719        25.36970        -0.16338
C         35.45521        27.52411        -0.39921
C         34.19059        26.75405        -0.10196
C         35.20775        28.99786        -0.76970
C         34.19929        29.69903         0.10763
C         35.66792        31.68970         0.41900
C         34.31011        31.02552         0.42472
C         35.58640        33.20257         0.35449
C         34.54524        33.90955         0.92953
C         35.54523        36.08467         0.07336
C         34.60194        35.37410         0.85769
C         35.43127        37.47597        -0.13787
C         34.31510        38.18759         0.37741
C         35.34933        40.34275        -0.40613
C         34.25842        39.62250         0.25157
C         35.38978        41.71890        -0.35614
C         34.44441        42.47452         0.54526
C         34.28693        43.94440         0.24457
C         36.50317        25.36907        -1.07226
C         37.54918        27.61771        -1.73828
C         36.30684        26.81477        -1.46613
C         37.60283        28.98858        -1.55572
C         36.51997        29.72394        -0.90902
C         37.79720        31.79231        -1.02492
C         36.64830        31.04729        -0.55582
C         37.85209        33.17821        -0.88598
C         36.82264        33.89494        -0.10078
C         37.74204        36.08790        -1.17650
C         36.78784        35.40311        -0.28259
C         37.55825        37.43819        -1.44220
C         36.46082        38.18586        -0.89171
C         36.38104        39.56364        -1.04333
C         38.77002        29.72885        -1.94051
C         39.97266        31.85474        -2.22460
C         38.84709        31.09563        -1.73926
C         39.98869        33.21322        -2.13578
C         38.89959        33.93587        -1.52489
C         38.83719        35.32633        -1.66587
O         24.72058        27.29413         0.08598
O         17.92779        50.63329         0.30463
O         21.09043        12.77210        -2.65055
O         23.09252         6.99071        -0.61697
O         28.65856        45.09872        -1.11767
O         12.22634        38.97532        -0.03442
O         33.11699        35.67907         2.70929
O         26.83984        52.62785        -1.35918
O         13.03737        31.14439        -0.33581
O         29.55884        38.50902         0.17234
O         19.81874        29.26883         3.56214
O         18.88107        40.99037        -1.57993
O         37.41462        34.78808         0.89881
O         18.34828        19.69725        -0.75124
O         10.08986        29.92592        -1.01891
O         15.04090        41.39446         0.60973
O         17.43712        37.98247         1.17809
O         27.42811        35.81947         3.65618
O         23.93556        46.04002        -2.11996
O         31.26695        44.25842         2.26027
O         32.32547        39.10568         2.77586
O         16.82980        22.02463        -0.39550
O         12.78035        22.63010         3.49591
O         32.72690        27.11992         1.88659
O         23.49076        40.35201         2.61214
O         15.02674        38.38967        -2.28002
O         29.65129        16.98791         1.80054
O         22.78467        29.17497         3.65563
O         25.54129        16.11996        -1.76055
O         24.40154        54.70114         0.67827
O         22.46333        18.08000         2.24240
O         25.13764        12.75242        -3.61079
O         15.83579        19.46382         2.16955
O         23.41443        23.66311         3.03144
O         33.60762        32.17073         2.48369
O         20.84228        24.66683        -0.13978
H         20.57227        25.58190        -0.37397
O         19.86894         9.30150         0.11602
H         19.90391        10.09702         0.68695
O         36.24132        27.51431         0.81628
H         35.70664        27.90635         1.53879
O         28.03378        18.78094         2.63761
H         28.42312        17.92041         2.92378
O         19.36966        50.53697        -3.05146
H         20.12220        50.94005        -3.53423
O         13.36876        24.95396         3.52569
H         13.07473        24.11887         4.02924
O         35.07642        42.44095         1.88120
H         34.40366        42.73232         2.53356
O         34.57934        29.03633        -2.09711
H         34.45586        29.97615        -2.34694
O         18.52511        31.17718        -0.40149
H         17.69455        31.44624        -0.85250
O         19.47876        59.33602        -1.84620
H         19.40342        59.33275        -0.87026
O         28.78760        25.79899        -1.23901
H         27.81330        25.92308        -1.21713
O         25.96677        40.90672         3.14535
H         25.06752        41.13285         3.47679
O         18.24659        15.50526         1.97787
H         18.15891        16.32053         2.51714
O         24.54943         4.61948        -1.10340
H         24.32879         5.05932        -0.25344
O         33.10149        16.21347        -0.48687
H         32.94243        16.42516        -1.42925
O         20.39698        19.66451         2.79197
H         21.17028        19.11161         3.06842
O         30.98199        24.73276        -1.45593
H         30.17559        24.88624        -1.99982
O         13.21552        36.50341         1.45986
H         12.77561        37.37924         1.35740
O         23.94215        54.42209        -2.93644
H         24.74681        53.85955        -2.92582
O         28.75099        54.54099        -1.03917
H         28.25394        53.89827        -1.59813
O         11.69210        26.88360         3.22609
H         12.34821        26.32885         3.72243
O         13.35365        33.72694         2.28866
H         13.30610        34.71528         2.26297
O         28.52303        28.49640         3.16804
H         28.29924        29.30707         3.69236
O         19.27467        42.42277         1.76692
H         19.99652        42.88437         2.24302
O         19.63952        46.17847        -2.63481
H         18.87248        46.64870        -3.02689
O         22.42034        56.66245        -3.44366
H         23.11928        55.98638        -3.61161
O         36.22001        31.40087         1.74505
H         35.55144        31.71815         2.40076
O         28.38433        23.23755         2.54994
H         28.51870        22.31935         2.87015
O         29.75441        34.92631         3.96871
H         28.86798        34.95531         4.40578
O         26.38339        45.52166        -2.25264
H         25.54219        45.45227        -2.76789
O         35.60079        26.71162        -2.73792
H         35.20825        27.59634        -2.93411
O         27.47483        53.40341         2.19016
H         26.93505        52.62330         2.46131
O         30.23197        29.08848        -0.84942
H         29.45160        28.52850        -1.05719
O         10.36737        31.95382         2.04801
H          9.51020        32.42909         2.03379
O         27.02619        42.87047        -1.68380
H         27.04588        43.66268        -2.27686
O         11.52880        40.27622        -3.45262
H         10.71580        40.60167        -3.89410
O         13.91101        42.19532        -2.76678
H         13.27399        41.77559        -3.38925
O         31.60259        24.74353         2.08481
H         32.16152        25.31878         2.65469
O         26.38585        50.90470         1.94090
H         27.13848        50.52275         2.44281
O         26.52428        47.87012         1.73847
H         26.17603        48.72915         2.06622
O         24.20508        38.05807         3.51959
H         23.57980        38.78379         3.74909
O         16.95128        25.34171        -0.26337
H         17.05522        24.42844        -0.61542
O         14.34027        31.32052         3.10540
H         14.06161        32.26411         3.20439
O         14.42781        43.74750         1.33428
H         14.76715        42.88922         1.68756
O         30.30450        46.54693         2.35514
H         30.80656        45.92571         2.93373
O         16.73420        29.59495         3.41405
H         17.52414        29.95797         3.86614
O         20.99897        19.31686        -0.84045
H         20.12627        19.61519        -1.20400
O         15.02357        21.76346         3.18187
H         14.22703        21.86130         3.79484
O         27.40823        13.61996        -3.32598
H         26.56189        13.60517        -3.87009
O         12.50784        25.20849         0.00682
H         11.91865        25.78483        -0.52450
O         26.00520        10.46471        -3.88213
H         25.72523        11.30560        -4.34344
O         23.22436        13.89394         1.14399
H         22.46427        14.25701         1.64812
O         23.00259        11.12317        -3.83860
H         23.74604        11.78534        -3.99671
O         25.41208        23.21950        -0.74092
H         25.35798        22.30124        -1.08445
O         18.41224        28.56473         0.26891
H         18.42777        29.44669        -0.19030
O         14.53192        33.22682        -1.15558
H         15.34350        33.49577        -1.63430
O          7.94859        29.11432         1.86572
H          7.18107        28.55182         2.10183
O         21.01727         4.00633        -3.86391
H         20.92328         4.65329        -4.59206
O         14.59119        26.67097        -0.37589
H         15.39962        26.13734        -0.61482
O         15.84624        29.07551        -0.09338
H         15.31095        28.34503        -0.51231
O         14.29946        21.72053        -0.38486
H         14.34887        21.04649        -1.09339
O         22.93643        33.44838         3.80227
H         22.12912        32.95313         4.05852
O         17.98418        27.34229         3.69645
H         18.70618        27.87903         4.10459
O         27.16333        30.81133         3.81238
H         26.28985        30.55557         4.18254
O         18.84968         8.68577        -3.35893
H         19.50563         9.25864        -3.80872
H          5.26406        30.94080        -1.47264
H          5.34287        33.35897        -1.93838
H          7.53243        26.71043         0.22074
H          6.35258        28.89907        -0.60622
H          6.59270        35.48636        -2.01538
H          7.81748        37.61635        -2.06499
H          9.88675        22.55088         0.96653
H          8.67882        24.67267         0.82650
H          9.02075        39.72279        -2.22167
H         10.08780        41.89239        -1.24317
H         12.26331        18.27703         0.85664
H         11.02376        20.43108         1.04396
H         11.23847        44.18819        -0.97493
H         12.48510        46.33496        -1.01615
H         14.79427        14.02851         0.10524
H         13.51726        16.12835         0.39981
H         13.71115        48.46204        -0.95261
H         14.90375        50.56979        -1.12265
H         17.21580         9.85967        -0.88261
H         15.97235        11.96726        -0.31183
H         16.18319        52.83185        -1.38039
H         17.40884        54.94749        -1.60492
H         19.85969         5.86500        -2.69547
H         18.59169         7.73043        -1.54788
H         18.60744        57.08751        -1.71444
H         20.82035        58.82906        -3.31979
H         23.39890         3.82792        -4.86559
H         22.24268         3.59462        -2.26541
H         22.82076        62.62737        -0.70749
H         20.90936        61.36079        -1.70137
H         25.45555         4.95304        -4.06149
H         26.67107         6.06924        -1.76158
H         26.15756        59.34042         0.24570
H         24.88130        61.43010         0.01368
H         27.71743         8.18534        -1.14089
H         28.94876        10.19317        -1.17896
H         28.72684        55.21706         0.90739
H         27.48820        57.29301         0.36789
H         30.35069        12.24407        -1.39857
H         31.61344        14.34539        -1.03919
H         31.47627        50.97939         0.87274
H         30.14036        52.98484         1.04259
H         32.18684        16.38131         1.34376
H         34.02362        18.38721        -0.22576
H         34.03487        46.62126         0.28384
H         32.83947        48.80117         0.53625
H         35.19337        20.53862        -0.50806
H         36.37429        22.69996        -0.74567
H         36.23047        42.26083        -0.81538
H         35.17934        44.49343        -0.09511
H         37.39898        24.82929        -1.41746
H         38.40323        27.11395        -2.21817
H         38.29415        37.97003        -2.06417
H         37.17897        40.09374        -1.58474
H         39.59520        29.20034        -2.44061
H         40.79874        31.31548        -2.71041
H         40.82664        33.78949        -2.55420
H         39.62738        35.83776        -2.23574
