         294
 CSIRO Nanostructure Databank - Neutral Graphene Oxide Data Set
C          1.02251         1.95761        -0.13876
C          0.98664         3.35517        -0.12003
C          2.22416         1.27851        -0.34003
C          2.16340         4.09902        -0.27061
C          0.99360         6.36146         0.25386
C          1.06678         7.72554         0.44333
C          2.16326         5.62861        -0.36383
C          2.25892         8.46158         0.22395
C          1.07767        10.69332         0.16555
C          1.11290        12.03221         0.25979
C          2.33475         9.92868        -0.12858
C          2.36918        12.76852         0.29067
C          1.22782        14.88977        -0.30281
C          1.24212        16.22232        -0.54088
C          2.38609        14.13765         0.14567
C          2.45224        17.06411        -0.22628
C          2.59495        18.31402        -1.06410
C          3.42262         1.98924        -0.50730
C          3.38062         3.39744        -0.46016
C          4.68809         1.21616        -0.86717
C          4.65727         4.14022        -0.59050
C          3.42697         6.20514         0.32007
C          3.50609         7.71402         0.11618
C          4.70519         5.57400        -0.18429
C          4.82343         8.42010         0.41856
C          3.57093        10.63314         0.44902
C          3.59399        12.00607         0.55272
C          4.75322         9.84287         0.86787
C          4.86791        12.71881         0.75007
C          3.62029        14.91686         0.52893
C          3.71728        16.18238        -0.36334
C          4.89840        14.10886         0.53905
C          4.94427        17.01323        -0.06570
C          3.78770        18.91902        -1.23527
C          5.04357        18.31038        -0.79963
C          5.98898         1.94203        -0.58975
C          5.95829         3.41424        -0.29303
C          7.17807         1.31462        -0.39634
C          7.15309         4.23107        -0.86943
C          6.00105         6.14333         0.36234
C          6.03134         7.58731         0.76259
C          7.34363         5.45478         0.06668
C          7.41512         8.23552         0.99935
C          6.05333        10.55307         1.29007
C          6.07343        12.00782         1.02999
C          7.35892         9.76563         1.32559
C          7.31499        12.76453         1.35091
C          6.22869        14.79821         0.30232
C          6.18058        16.32044         0.36505
C          7.33948        14.29314         1.24373
C          7.48763        17.10214         0.23522
C          6.25357        18.75335        -1.22485
C          7.50244        17.90769        -1.07843
C          8.44423         2.05264        -0.30076
C          8.46811         3.41063        -0.99897
C          9.61438         1.44546         0.03390
C          9.67232         4.30705        -0.72019
C          8.37474         6.40578        -0.54589
C          8.44738         7.83670        -0.07147
C          9.64913         5.67204        -0.78053
C          9.77500         8.52042         0.04081
C          8.64812        10.52586         1.28185
C          8.61535        12.02547         1.52673
C          9.74877        10.02819         0.32994
C          9.94298        12.80460         1.68073
C          8.70686        14.88416         0.86452
C          8.73831        16.25097         0.35827
C          9.88186        14.20660         1.08099
C          9.92193        16.91819         0.08451
C          8.79151        18.68727        -1.17925
C          9.93124        18.20393        -0.63120
C         10.91524         2.05608        -0.45862
C         10.89042         3.58781        -0.23151
C         12.20050         1.49303         0.11555
C         12.22126         4.19052        -0.71803
C         10.87498         6.52543        -1.04290
C         10.93470         7.86247        -0.28452
C         12.18482         5.70698        -0.96482
C         12.23370         8.55323        -0.27318
C         11.11205        10.58447         0.73891
C         11.18975        11.98351         1.26334
C         12.24851        10.06902        -0.13424
C         12.52353        12.74954         1.28745
C         11.17029        14.99733         1.17449
C         11.18681        16.33777         0.46780
C         12.41053        14.19966         0.91147
C         12.34553        17.07245         0.40395
C         11.25483        18.90344        -0.90491
C         12.29206        18.57218         0.18586
C         13.34787         2.22520         0.31699
C         13.34998         3.74966         0.25889
C         14.59955         1.57531         0.58266
C         14.68762         4.34841        -0.12960
C         13.45113         6.44304        -0.73556
C         13.40546         7.90655        -0.54921
C         14.70311         5.73295        -0.38435
C         14.66156         8.61409        -1.00528
C         13.61646        10.61286         0.27177
C         13.69842        12.06931         0.57479
C         14.81226         9.95986        -0.32775
C         14.87654        12.73199         0.43493
C         13.66259        14.93322         0.87195
C         13.64653        16.43794         0.68326
C         14.88716        14.23988         0.32637
C         14.90479        17.13007         0.22151
C         13.63863        19.23343        -0.02986
C         14.85655        18.61310         0.09050
C         15.82796         2.23914         0.49741
C         15.86510         3.61854         0.09423
C         17.08130         1.53770         0.68917
C         17.16810         4.27066        -0.09225
C         15.91496         6.48398        -0.42802
C         15.94740         7.83201        -0.74682
C         17.19748         5.75439        -0.32039
C         17.23548         8.51538        -1.02329
C         15.95664        10.82638        -0.84784
C         16.17936        12.01108         0.10128
C         17.26455        10.03311        -1.09841
C         17.31077        12.91792        -0.45188
C         16.15587        14.91661         0.88843
C         16.21037        16.41785         0.42843
C         17.37128        14.17570         0.38532
C         17.43033        17.28245         0.55554
C         16.11566        19.29735        -0.07475
C         17.35812        18.67770         0.10137
C         18.30569         2.16776         0.64476
C         18.39008         3.60202         0.40788
C         19.56510         1.45506         0.79855
C         19.55797         4.29724         0.53341
C         18.36809         6.60432         0.13518
C         18.55657         7.73021        -0.92561
C         19.62695         5.77664         0.37805
C         19.80895         8.56277        -0.64713
C         18.63101        10.80403        -1.10838
C         18.62189        12.14058        -0.36716
C         19.85170         9.97069        -0.72249
C         19.79673        12.78667        -0.16678
C         18.58374        14.64375         0.71321
C         18.62967        16.83102         1.01342
C         19.75948        14.30168        -0.13539
C         19.97019        17.44440         0.81696
C         18.58626        19.40259        -0.02253
C         19.85184        18.83877         0.23281
C         20.74339         2.10741         0.86728
C         20.84706         3.60954         0.94710
C         22.00365         4.16585         0.12787
C         20.94631         6.39532         0.03091
C         20.99478         7.83495        -0.37606
C         22.05695         5.45307        -0.25565
C         22.21470         8.51109        -0.25014
C         21.07574        10.64542        -0.46934
C         21.14293        12.12121        -0.10075
C         22.24784         9.90332        -0.28386
C         22.14095        13.01265        -0.82982
C         21.08432        15.05499         0.18114
C         21.00189        16.61977        -0.09451
C         22.13628        14.34910        -0.66987
C         22.31424        17.36165         0.14683
C         21.07671        19.46866        -0.01292
C         22.30076        18.72702         0.11310
O         13.04046         6.04261        -2.11862
O          9.43595        10.66313        -0.89971
O          8.70011         3.08800        -2.36955
O         15.64169        16.57981        -0.91139
O          4.40590         8.19494        -0.95669
O         11.33109        10.78883         2.15159
O          5.31372        16.94412         1.36480
O         18.70193        15.61910         1.72348
O         14.54356         9.81798         1.10681
O          8.22384         9.90315         2.51775
O          7.78127        12.33159         2.68085
O          7.93210         7.49943        -1.39202
O         13.81618        15.86591         2.01019
O         17.13606         9.23471        -2.29677
O          5.08033        10.05221         2.27630
O          5.80321         6.54090         1.76275
O         18.74362        11.26869        -2.43586
O         20.46603         6.35616         1.45097
O          4.66029         5.21596        -1.58830
O         17.40277         4.85707        -1.43852
O          7.95932         7.58162         2.16992
H          7.51802         7.94687         2.96692
O         14.74053        14.39131        -1.10662
H         15.50685        13.96942        -1.57670
O         10.72944         3.74862         1.22230
H          9.80119         4.04331         1.39973
O          7.01941        14.82236         2.54287
H          7.48303        14.25628         3.20316
O          7.57307        18.06301         1.30606
H          6.75849        17.97175         1.85410
O          3.40137        15.27195         1.93399
H          4.20310        15.77880         2.22376
O         17.97910         7.22130         1.37411
H         18.80083         7.34021         1.90643
O         10.12209        13.00927         3.10965
H         10.18022        12.11742         3.51976
O         18.76610         7.08481        -2.19333
H         18.55419         7.74510        -2.89098
O         21.54791        12.10165         1.30244
H         21.59898        13.03954         1.61457
O         15.49695        11.34293        -2.10328
H         15.38248        10.57412        -2.71097
O         11.74455        18.50406        -2.19026
H         11.86171        17.53154        -2.19549
O         11.75692        19.14941         1.41111
H         12.15559        18.68194         2.17511
O         10.94197         1.70754        -1.85617
H         10.14081         2.15196        -2.27358
O          2.47585         9.95607        -1.58824
H          3.23279         9.36676        -1.82428
O         12.53898         3.57728        -1.97391
H         13.00120         4.25021        -2.52650
O          7.48543        16.95337        -2.17728
H          7.57598        17.45032        -3.01679
O          3.24779         5.93034         1.72227
H          4.11065         6.09672         2.17735
O          3.80151        15.74403        -1.73410
H          4.68416        15.33117        -1.87316
O         20.61120        17.50700         2.12533
H         20.01714        17.98887         2.73789
O          4.62489         0.89587        -2.27199
H          4.79508         1.71506        -2.78159
O         12.91627        12.78686         2.69781
H         12.78151        11.87326         3.04176
O         13.18624         4.28192         1.59152
H         12.29523         4.00903         1.92384
O          6.58559        14.49236        -1.07454
H          6.70438        13.52357        -1.17188
O         16.70339        11.48694         1.34133
H         16.00075        10.92004         1.74347
O         16.10289        14.84210         2.31646
H         17.00684        15.01635         2.65966
O         19.42345        14.68800        -1.50616
H         18.60611        14.19863        -1.80313
O         11.31429        15.34295         2.59871
H         11.22746        14.49815         3.11074
O         11.99803        10.63899        -1.43648
H         10.99869        10.61523        -1.57816
O          7.95673         4.99908         1.29337
H          7.81666         5.71707         1.96183
O         21.43183        14.87707         1.56922
H         20.99138        15.58587         2.09810
O         21.12205         3.90948         2.34500
H         21.07595         4.89393         2.42788
O         10.72022         6.94764        -2.42239
H         10.40267         6.18317        -2.94732
O         20.73479        16.89299        -1.46734
H         20.17667        16.16740        -1.84632
O         17.13276        13.26207        -1.84625
H         17.54614        12.50017        -2.37381
O          6.87260         4.70906        -2.17417
H          7.48731         4.20230        -2.77822
O          6.03918         3.46416         1.16820
H          5.45260         2.76656         1.52806
O         14.52127         8.80313        -2.43323
H         14.03404         8.03158        -2.79872
O          2.14068         5.99001        -1.76063
H          3.00911         5.70978        -2.14738
O          2.31024        17.53504         1.13451
H          2.37755        16.74464         1.72710
H          0.08984         1.39011        -0.01427
H          0.02126         3.86329         0.01148
H          2.23512         0.18014        -0.38271
H          0.03254         5.85266         0.41853
H          0.15035         8.26351         0.72963
H          0.11477        10.16535         0.16790
H          0.17562        12.58994         0.39343
H          0.30833        14.32859        -0.52550
H          0.33024        16.72130        -0.90337
H          1.68033        18.78246        -1.45902
H          4.67995         0.23489        -0.32365
H          3.85611        19.85733        -1.80734
H          7.23158         0.21374        -0.42616
H          6.31150        19.66672        -1.83976
H          9.61580         0.40348         0.39431
H          8.81472        19.60538        -1.78817
H         12.26885         0.39382         0.19460
H         11.09697        20.00885        -0.94325
H         14.59789         0.49003         0.77489
H         13.61281        20.32350        -0.18831
H         17.03840         0.45672         0.88989
H         16.09102        20.37081        -0.31897
H         19.53469         0.35529         0.82738
H         18.53968        20.44071        -0.38851
H         21.67886         1.53813         0.97797
H         22.84761         3.49521        -0.09615
H         22.92011         5.82838        -0.82600
H         23.13391         7.94487        -0.04397
H         23.19316        10.42958        -0.09136
H         22.91497        12.54396        -1.45827
H         22.88956        14.96452        -1.18711
H         23.26704        16.81192         0.17009
H         21.11113        20.52141        -0.33140
H         23.24942        19.28506         0.12126
