         252
 CSIRO Nanostructure Databank - Neutral Graphene Oxide Data Set
C         30.70169        31.91961         2.00496
C         30.78967        33.15252         1.98189
C         30.58814        36.27437         0.77622
C         30.57285        37.31876         0.11006
C         30.63016        40.40464        -0.82439
C         30.58560        41.63155        -1.03673
C         32.87956        29.04449         1.26448
C         31.82896        29.60188         1.61896
C         33.04413        31.73903         1.31259
C         31.89466        31.02144         2.15425
C         33.02764        33.12333         1.08341
C         31.86585        34.01116         1.50160
C         32.79523        35.77951        -0.10952
C         31.76273        35.40272         0.97223
C         32.85250        37.25725        -0.53550
C         31.60066        38.09643        -0.52704
C         32.96112        40.09817        -1.37864
C         31.65105        39.42165        -0.84188
C         32.99534        41.63007        -1.31041
C         31.77913        42.40063        -1.30580
C         33.12528        44.25305        -1.74000
C         31.97337        43.77473        -1.52326
C         35.42744        27.35947         0.34687
C         35.26032        28.78384         0.43622
C         34.14986        29.51614         0.80855
C         35.30817        31.64176         0.31933
C         34.15897        30.97804         0.83423
C         35.34460        33.04076         0.22870
C         34.16468        33.76816         0.50338
C         35.33994        35.88969         0.12519
C         34.14340        35.18311         0.21383
C         35.28783        37.38927         0.25821
C         34.14675        38.00596        -0.51697
C         35.38097        40.13536        -0.61763
C         34.17428        39.47149        -0.71541
C         35.51615        41.47643        -1.25874
C         34.26222        42.25497        -1.48544
C         35.64926        44.33219        -2.17179
C         34.37880        43.64399        -1.76354
C         35.69076        45.77076        -1.62320
C         37.71640        27.16086        -0.49733
C         36.36698        26.68088        -0.06946
C         37.68886        28.73195        -0.30445
C         36.49841        29.41791         0.01330
C         37.84300        31.61753        -0.29252
C         36.46174        30.86173        -0.15917
C         37.86523        33.05059        -0.04257
C         36.56242        33.77392        -0.32169
C         37.81057        35.90147         0.21768
C         36.58595        35.21077         0.11313
C         37.79125        37.32629         0.20765
C         36.60152        38.07906         0.03027
C         37.77549        40.28211         0.25899
C         36.59176        39.46167        -0.20937
C         37.90760        41.67879        -0.28812
C         36.86752        42.21892        -1.16024
C         38.19473        44.46179        -1.28542
C         36.96660        43.65842        -1.61541
C         38.12740        45.99362        -1.44536
C         36.76564        46.37712        -1.48878
C         40.16270        24.59017         0.72291
C         39.09972        25.26182         0.78066
C         39.91090        27.42705         0.56526
C         38.84315        26.60246         0.32842
C         40.19928        28.61629        -0.32722
C         38.93611        29.43905        -0.29193
C         40.29529        31.49532         0.20181
C         39.04731        30.82264        -0.10480
C         40.30595        32.89664         0.30994
C         39.07518        33.68134         0.20214
C         40.25763        35.82491         0.55076
C         39.08177        35.15686         0.30082
C         40.24188        37.30317         0.73221
C         39.07751        38.04138         0.16137
C         40.31370        40.27296         0.53341
C         39.09650        39.53590         0.11028
C         40.22601        41.75622         0.76456
C         38.90246        42.55474         0.45208
C         40.50584        44.62012         0.00644
C         39.17299        43.94415        -0.22568
C         41.02216        45.67310        -0.92213
C         39.24509        46.66133        -1.88291
C         40.91821        48.39240        -1.60436
C         39.73693        47.99597        -1.77596
C         42.60490        24.35698        -0.21327
C         41.51928        24.90639         0.53291
C         42.87617        27.02955         0.26562
C         41.81165        26.31179         0.78725
C         42.77799        28.50105        -0.20158
C         41.49911        29.32685         0.03197
C         42.79876        31.35620         0.77879
C         41.52995        30.67780         0.29855
C         42.83290        32.89021         0.90743
C         41.63623        33.64868         0.29373
C         42.77821        35.88015         1.07209
C         41.51628        35.08454         0.83855
C         42.78170        37.37881         1.04303
C         41.48283        38.10102         0.99947
C         42.76320        40.29973         0.89388
C         41.46423        39.58565         0.80058
C         42.82827        41.79033         0.89117
C         41.50700        42.50623         1.02798
C         42.93640        44.53754         0.55483
C         41.54334        44.03778         0.99294
C         42.90534        46.05769         0.55255
C         42.00856        46.57478        -0.52397
C         43.22632        48.58827        -0.36302
C         42.10093        47.96205        -0.96415
C         43.64054        24.91929        -0.63594
C         45.31785        27.07039        -0.48862
C         44.06524        26.27484        -0.22811
C         45.37841        28.57410        -0.01306
C         44.01120        29.21526         0.23769
C         45.38464        31.05951         0.81826
C         44.03274        30.49487         0.66832
C         45.33667        33.19999         1.24498
C         44.11131        33.72322         0.93380
C         45.24173        35.93694         1.00616
C         44.09126        35.19831         0.89176
C         45.23603        37.36761         1.47489
C         43.94224        38.07295         1.17397
C         45.24491        40.27759         1.58714
C         43.94810        39.54407         1.38658
C         45.28982        41.77209         1.49249
C         44.09550        42.48974         1.28445
C         45.28724        44.61158         1.58690
C         44.11397        43.89967         1.26013
C         45.19567        46.16408         1.83671
C         44.06952        46.86188         1.09459
C         44.17843        48.09359         0.29714
C         47.24312        27.65689        -1.74760
C         46.35039        26.80971        -1.49024
C         47.47951        28.98916        -1.39107
C         46.15411        29.58832        -0.93069
C         47.53020        31.78959        -0.46533
C         46.40337        30.82530        -0.05660
C         47.80264        33.05796         0.39665
C         46.64796        33.84453         1.01938
C         47.72418        36.11391         0.48155
C         46.59100        35.32414         0.99219
C         47.62831        37.47870         0.51934
C         46.45072        38.17019         1.03227
C         47.77515        40.25090         1.36114
C         46.48876        39.51463         1.31508
C         47.79093        41.71670         1.72409
C         46.50318        42.48037         1.68822
C         47.82751        44.61910         2.19252
C         46.49285        43.89516         1.79800
C         47.63080        46.03491         1.72595
C         46.57861        46.63295         1.52702
C         49.95125        29.14037        -1.66651
C         48.70027        29.66831        -1.27666
C         50.04347        31.73422        -1.01161
C         48.82820        31.05183        -0.84678
C         50.23115        33.22236        -0.68760
C         49.01778        33.87435         0.02095
C         49.62271        36.14882        -1.10508
C         49.06634        35.43100         0.17199
C         49.79754        37.67588        -0.83822
C         48.72029        38.32690        -0.03589
C         50.05622        40.52416         0.15024
C         48.95888        39.63827         0.65530
C         50.25128        41.85404         0.78412
C         49.10346        42.46989         1.51089
C         50.26376        44.46521         1.28078
C         49.03121        43.95975         1.59457
C         51.06052        29.71360        -1.82334
C         52.16022        32.04406        -2.07222
C         51.21889        31.09097        -1.58545
C         52.08777        33.27212        -2.24718
C         50.77842        34.00847        -1.93989
C         51.95444        36.28180        -1.40892
C         50.93644        35.44493        -1.56339
C         52.20808        37.54772        -1.16328
C         51.14661        38.36755        -0.89000
C         52.37618        40.66323        -0.58047
C         51.17896        39.82834        -0.69052
C         52.40539        41.85480        -0.22794
C         51.42209        42.61894         0.48921
C         51.36352        43.99781         0.82364
O         44.41545        39.86970         2.74915
O         48.93189        33.12004         1.29448
O         40.57349        37.71579         2.10014
O         42.56755        32.06072         2.05258
O         42.01160        35.29523         2.18805
O         33.67700        37.33468        -1.75336
O         48.72054        38.42425        -1.50611
O         50.10461        40.56274        -1.31777
O         39.31071        38.76196        -1.11032
O         40.69645        42.02722         2.13783
O         32.26288        35.17395         2.29063
O         40.36226        45.78396        -2.14234
O         43.01871        41.04951        -0.36074
O         40.86563        27.05290         1.52219
O         37.01829        31.25674        -1.45350
O         45.23358        26.22167         0.67422
O         47.00702        34.59836         2.22513
O         38.10092        43.78109        -2.56129
O         45.48838        31.96864         1.85501
O         39.30648        45.02099         0.76404
O         48.68447        41.93963         2.84601
O         48.83337        39.52097         2.08585
O         42.82032        46.74452         1.83733
O         36.48712        41.39152        -2.33861
O         37.95557        26.87338        -1.87905
H         37.17723        27.16120        -2.40100
O         48.66722        35.97952        -2.14387
H         48.33595        36.88066        -2.38689
O         44.98098        46.30253         3.23611
H         44.05758        46.61260         3.37843
O         47.01940        32.38314        -1.69563
H         46.61220        31.67131        -2.24177
O         49.95526        35.73989         1.24939
H         49.66290        35.22484         2.03367
O         37.56506        40.33777         1.71360
H         37.58080        41.28741         2.00037
O         43.05156        44.09993        -0.82430
H         43.95054        44.29612        -1.16199
O         41.99427        33.78029        -1.11620
H         41.20875        34.09413        -1.61269
O         34.93588        37.67273         1.65296
H         35.73567        37.55709         2.20879
O         40.36795        28.10200        -1.68877
H         39.53451        27.63392        -1.96620
O         45.37242        29.94225        -2.08747
H         44.53160        29.41805        -2.10745
O         47.92666        44.60950         3.60324
H         47.16300        45.10312         3.97186
O         46.11978        28.54893         1.21409
H         45.87965        27.72324         1.69477
O         51.29968        33.32322         0.26982
H         50.96360        32.98940         1.13046
O         33.03232        39.78247        -2.78530
H         33.25518        38.82294        -2.86253
O         49.89526        33.83450        -3.01434
H         49.99756        34.56304        -3.65957
O         45.34026        37.28105         2.92405
H         45.09797        38.16356         3.29600
O         35.72135        44.34991        -3.56910
H         36.66772        44.43011        -3.82760
O         32.31518        30.98739         3.48659
H         31.60219        30.62072         4.04793
O         41.29065        44.53337         2.30343
H         40.36507        44.87159         2.32786
O         32.32868        35.06269        -1.28338
H         32.85882        35.38048        -2.04821
O         36.41296        33.83203        -1.77797
H         36.46950        32.90099        -2.10603
O         38.31381        42.87504         1.74517
H         39.06112        42.91869         2.39315
O         42.96024        28.42287        -1.65901
H         42.07171        28.21342        -2.05329
