         618
 CSIRO Nanostructure Databank - Neutral Graphene Oxide Data Set
C          5.74822        31.54891        -0.07495
C          5.77122        32.90053        -0.26803
C          8.12598        27.21566         0.84660
C          8.00125        28.66426         1.07259
C          6.87081        29.41674         0.51619
C          8.15014        31.51452         0.53173
C          6.91664        30.79016         0.34789
C          8.27566        32.88428        -0.07793
C          6.98981        33.67160        -0.19415
C          8.25042        35.80319        -0.33314
C          7.02445        35.03603        -0.38853
C          8.34178        37.15570        -0.59344
C         10.74691        23.06231         0.43709
C         10.66580        24.45957         0.55671
C          9.42401        25.12445         0.69325
C         10.60460        27.23995         1.20575
C          9.32843        26.52803         0.91803
C         10.59476        28.74335         1.41371
C          9.28369        29.46678         1.37680
C         10.54414        31.61169         1.09680
C          9.30738        30.88895         0.97584
C         10.54938        33.03948         0.98282
C          9.39447        33.68526         0.51141
C         10.70274        35.84844         0.40611
C          9.47548        35.07596         0.05713
C         10.67706        37.31327         0.28143
C          9.55683        37.92221        -0.38659
C         10.85724        40.00370        -0.56837
C          9.66542        39.25540        -0.79266
C         11.02946        41.28565        -1.11945
C         13.32718        18.84155         0.11463
C         13.26368        20.27753         0.04329
C         12.04196        20.96807         0.21759
C         13.19059        23.14237         0.07683
C         11.98629        22.38078         0.24383
C         13.14804        24.58812         0.14856
C         11.89047        25.25027         0.46091
C         13.01336        27.46049         0.44680
C         11.84705        26.60888         0.70630
C         13.05158        28.86380         0.91270
C         11.82735        29.51761         1.16757
C         12.99750        31.69198         1.30594
C         11.79278        30.94618         1.23729
C         12.97489        33.10085         1.45705
C         11.74989        33.76209         1.28894
C         12.97538        35.96061         1.42958
C         11.65010        35.24962         1.41849
C         12.96466        37.33432         1.22837
C         11.81063        38.02811         0.67006
C         13.05930        40.13429         0.51162
C         11.90924        39.41484         0.25388
C         13.31486        41.40728        -0.17304
C         12.22630        42.03467        -0.95390
C         13.53200        44.14417        -1.13451
C         12.42345        43.30749        -1.49457
C         13.75107        45.39612        -1.67853
C         15.98641        14.65547         0.14083
C         15.88307        16.06037         0.13389
C         14.63093        16.71879         0.17739
C         15.77740        18.86147        -0.24331
C         14.52687        18.12687         0.05303
C         15.72672        20.35964        -0.39217
C         14.44979        21.04847        -0.15161
C         15.64699        23.20820        -0.37077
C         14.42129        22.46337        -0.13185
C         15.57026        24.68146        -0.41592
C         14.31629        25.32599        -0.00348
C         15.56988        27.51764         0.38744
C         14.31792        26.80068         0.03963
C         15.52002        28.86883         0.83899
C         14.26896        29.55893         0.93476
C         15.46548        31.65375         1.82054
C         14.32071        31.05362         1.01241
C         15.46789        33.13848         1.88202
C         14.21316        33.84236         1.74348
C         15.35274        36.00057         2.23959
C         14.16201        35.24499         1.80671
C         15.41684        37.45856         2.02971
C         14.12523        38.12222         1.69618
C         15.36744        40.31503         1.48313
C         14.11468        39.59202         1.37674
C         15.21553        41.81135         1.55011
C         14.46360        42.25657         0.29165
C         15.55201        44.58017         0.44768
C         14.39187        43.71190        -0.00377
C         15.79070        45.80256        -0.30863
C         14.85334        46.24783        -1.28017
C         16.11160        48.39941        -1.57683
C         15.01508        47.49539        -1.91068
C         16.51821        49.45192        -2.52128
C         18.62897        10.42156        -0.00023
C         18.22513        11.67076         0.46119
C         17.17420        12.54234         0.07365
C         18.45605        14.74565         0.29731
C         17.21824        13.95663         0.23956
C         18.39279        16.14523         0.16879
C         17.11580        16.84004         0.13852
C         18.28592        19.04655         0.34815
C         17.06700        18.21306         0.04747
C         18.20251        20.49306        -0.10157
C         16.98469        21.13241        -0.27667
C         18.13308        23.30711        -0.56916
C         16.87463        22.56129        -0.44139
C         18.17150        24.83544        -0.43123
C         16.85515        25.52614        -0.35643
C         17.94289        27.38011         0.94788
C         16.80179        26.84102         0.31191
C         17.74519        28.58791         1.65401
C         16.69268        29.46684         1.39132
C         18.04346        31.69075         1.87023
C         16.76396        30.88683         1.89973
C         17.96535        33.11280         1.89546
C         16.69197        33.79665         2.02651
C         17.92180        36.03824         2.23295
C         16.69314        35.23970         2.32774
C         17.86966        37.43988         2.39390
C         16.59678        38.15640         2.20372
C         17.45016        40.55951         2.65645
C         16.64880        39.63013         1.78153
C         17.70706        41.84360         2.26488
C         16.52534        42.58090         1.75013
C         18.10976        44.48681         1.10724
C         16.67927        43.97496         1.26362
C         18.04839        46.00720         0.95151
C         16.92662        46.62413         0.14084
C         18.52031        48.41257        -0.73039
C         17.11094        47.95651        -0.52995
C         18.74254        49.69762        -1.45847
C         17.70678        50.14369        -2.39637
C         19.18788        51.96451        -3.18528
C         17.99847        51.25377        -3.26367
C         19.51004        53.02592        -4.07180
C         21.29402         6.22935         0.24823
C         20.91100         7.51762         0.62644
C         19.91183         8.38384         0.12803
C         21.12556        10.58559         0.47420
C         19.89809         9.79792         0.32478
C         21.11917        12.01631         0.33354
C         19.98607        12.79321         0.66836
C         20.91445        14.84936        -0.16622
C         19.76882        14.12943         0.25728
C         20.82660        16.26643        -0.31520
C         19.58636        16.92445        -0.06622
C         20.73568        19.08978        -0.24706
C         19.55926        18.34365        -0.07321
C         20.72836        20.52867         0.23365
C         19.43330        21.24953        -0.09851
C         20.57277        23.43456        -0.52569
C         19.37831        22.60729        -0.26562
C         20.58959        24.83555        -0.04098
C         19.39244        25.45151         0.16715
C         20.59132        27.48434         1.21270
C         19.27380        26.71492         0.94583
C         20.61614        28.97242         1.28732
C         19.59395        29.67837         1.84802
C         20.47063        31.87127         1.36211
C         19.33633        31.09831         1.68583
C         20.40720        33.29095         1.47480
C         19.16542        33.91614         1.79600
C         20.38125        36.06905         1.99387
C         19.15511        35.34429         1.99574
C         20.37750        37.47095         2.33265
C         19.13794        38.12489         2.56852
C         20.34506        40.29439         2.91315
C         19.23266        39.45606         3.05018
C         20.20527        41.79000         3.02430
C         18.93821        42.58258         2.69757
C         20.51398        44.57256         1.98845
C         19.06474        44.08944         2.31405
C         20.57613        45.78651         1.27518
C         19.37026        46.74501         1.16864
C         20.88523        48.55575         0.19823
C         19.60804        47.78916         0.07414
C         21.04876        49.85251        -0.52367
C         19.93680        50.35688        -1.37076
C         21.57706        52.14166        -2.24181
C         20.16973        51.60051        -2.13811
C         21.90831        53.03476        -3.38063
C         20.80171        53.56965        -4.17553
C         22.39353        55.08172        -5.29496
C         21.08228        54.60855        -5.08978
C         22.63174        56.23175        -6.04548
C         23.98868         3.64672         0.54905
C         22.74209         4.27177         0.46876
C         23.81287         6.46731         0.59862
C         22.60645         5.68097         0.51322
C         23.81629         7.90400         0.53401
C         22.66833         8.66390         0.84014
C         23.59388        10.67085        -0.11218
C         22.44348         9.97986         0.40029
C         23.49886        12.08021        -0.38626
C         22.26927        12.74654        -0.12466
C         23.33816        14.88525        -0.65034
C         22.17398        14.15863        -0.30739
C         23.21457        16.31571        -0.99976
C         21.97839        17.03136        -0.64249
C         23.16908        19.20758        -0.88219
C         21.96007        18.43195        -0.57226
C         23.09435        20.60269        -0.92408
C         22.03566        21.33067        -0.14900
C         23.07528        23.55632        -0.75525
C         21.84379        22.72781        -0.70076
C         23.11259        24.80615        -0.22620
C         21.89945        25.29536         0.59319
C         23.15388        27.62603         0.68931
C         21.91464        26.80304         0.89427
C         23.04373        29.12858         0.64362
C         21.64042        29.74675         0.46615
C         22.82502        31.96319         0.69358
C         21.68591        31.22708         0.88173
C         22.96095        33.32560         1.31906
C         21.62223        34.04209         1.40336
C         22.90395        36.04355         2.03587
C         21.60962        35.39226         1.71801
C         22.85928        37.46897         2.53779
C         21.58407        38.21497         2.50976
C         22.85315        40.33422         2.90493
C         21.59522        39.61674         2.72695
C         22.80794        41.75102         3.33753
C         21.50671        42.54758         3.17013
C         22.89817        44.58819         2.86064
C         21.65279        43.94319         2.66890
C         23.24507        45.67944         1.97864
C         21.80158        46.36341         0.80560
C         23.36345        48.29597         0.51690
C         22.06637        47.71199         0.48132
C         23.64237        49.48004        -0.36794
C         22.42942        50.27241        -0.83549
C         24.04954        51.80746        -1.79890
C         22.67378        51.36836        -1.60547
C         24.32536        52.70733        -2.93178
C         23.20890        53.34694        -3.66793
C         24.80462        55.10132        -4.54914
C         23.56422        54.27390        -4.79834
C         24.97937        56.31651        -5.27628
C         23.92175        56.84494        -6.09164
C         25.37204        58.69198        -6.76737
C         24.13922        58.02228        -6.83007
C         25.15629         4.40253         0.55435
C         26.27802         6.58112         0.31061
C         25.08918         5.81902         0.51071
C         26.24640         7.95559         0.02522
C         24.96467         8.62486         0.09619
C         26.01979        10.67803        -0.78570
C         24.83680         9.99387        -0.22148
C         25.93301        12.16738        -1.02059
C         24.65147        12.83426        -0.71786
C         25.83848        15.01488        -0.82221
C         24.57857        14.23325        -0.78459
C         25.77666        16.49438        -0.98689
C         24.45458        17.11847        -1.26126
C         25.58845        19.32400        -1.48819
C         24.39748        18.58288        -1.20713
C         25.48477        20.70732        -1.68477
C         24.19083        21.36153        -1.52500
C         25.38198        23.74089        -1.84624
C         24.13641        22.95299        -1.58493
C         25.36484        25.24460        -1.44732
C         24.37505        25.57954        -0.31481
C         25.49507        27.88959        -0.41392
C         24.41348        27.01203         0.12423
C         25.40796        29.25754        -0.35796
C         24.19729        29.93509         0.15605
C         25.14508        32.27806        -0.42299
C         23.97406        31.40371        -0.07166
C         25.18915        33.67190         0.10979
C         24.11035        34.19149         0.80173
C         25.28970        36.29032         1.35003
C         24.14352        35.52346         1.39095
C         25.38477        37.59341         2.04565
C         24.13639        38.24545         2.58841
C         25.34482        40.43975         2.75672
C         24.08319        39.71872         2.72006
C         25.38201        41.78915         3.17811
C         24.11775        42.47526         3.53864
C         25.42806        44.71374         3.52161
C         24.08750        44.02542         3.57484
C         25.56552        46.07957         3.50256
C         23.99394        46.80863         2.28418
C         25.65586        48.59682         1.61249
C         24.37381        47.86082         1.40694
C         25.82749        49.78026         0.91661
C         24.65981        50.45937         0.21444
C         26.34785        52.02343        -0.95181
C         25.03836        51.41003        -0.92470
C         26.62596        53.06270        -1.88386
C         25.68781        53.37564        -2.96655
C         27.03676        55.40132        -3.54701
C         25.82147        54.64726        -3.70956
C         27.22094        56.57450        -4.30840
C         26.21086        57.03993        -5.17467
C         26.38729        58.22628        -5.94825
C         27.42198         8.70826        -0.26655
C         28.50111        10.85449        -0.88432
C         27.36313        10.07036        -0.62456
C         28.44748        12.27161        -1.10483
C         27.18572        12.94884        -1.06238
C         28.29939        15.13082        -1.26057
C         27.13104        14.34558        -1.06845
C         28.22687        16.56558        -1.41359
C         26.98279        17.24569        -1.37083
C         28.07208        19.35542        -1.86736
C         26.87795        18.62728        -1.61843
C         27.96514        20.76312        -2.30175
C         26.64158        21.47963        -2.18116
C         27.93641        23.62634        -1.58893
C         26.65268        22.99719        -2.11288
C         27.90432        25.12996        -1.42562
C         26.74590        25.80975        -1.13130
C         27.89360        27.99368        -0.95397
C         26.73364        27.23799        -0.84125
C         27.85537        29.44067        -0.92217
C         26.52244        30.09461        -0.87096
C         27.69593        32.42225        -1.04845
C         26.41714        31.60923        -0.92268
C         27.70923        33.94929        -0.78070
C         26.37074        34.52266        -0.20783
C         27.73923        36.56490         0.68004
C         26.40881        35.88952         0.47135
C         27.76748        37.81513         1.48931
C         26.57559        38.44824         1.86523
C         27.80630        40.50122         2.42531
C         26.56891        39.78823         2.36595
C         27.81090        41.85863         2.86375
C         26.61365        42.49173         3.21340
C         27.94289        44.64940         3.84687
C         26.62908        43.84213         3.88885
C         27.96493        46.18311         3.70412
C         26.75944        46.85023         3.17542
C         28.07460        48.77000         2.35464
C         26.79157        48.03349         2.41785
C         28.21772        49.97518         1.68615
C         27.00593        50.70210         1.15355
C         28.57824        52.31863        -0.00792
C         27.31328        51.65543         0.00933
C         28.80642        53.42153        -0.86293
C         27.82727        53.83022        -1.79016
C         28.02896        54.95222        -2.63950
C         29.61614        13.05571        -1.25661
C         30.74258        15.25640        -1.56397
C         29.56462        14.46648        -1.36754
C         30.69763        16.64974        -1.67315
C         29.41411        17.32535        -1.61108
C         30.57946        19.56215        -1.65799
C         29.32653        18.72645        -1.79259
C         30.51733        20.93207        -2.28676
C         29.22123        21.57507        -2.48030
C         30.45673        23.80868        -2.20088
C         29.17628        23.09622        -2.29590
C         30.44441        25.22387        -1.88444
C         29.21758        25.79817        -1.28588
C         30.37427        28.07172        -1.47282
C         29.19273        27.31107        -1.07221
C         30.26010        29.53048        -1.47851
C         29.00512        30.18207        -1.04921
C         30.26995        32.35550        -0.67217
C         29.00595        31.67270        -1.08294
C         30.20425        33.69456        -0.11717
C         28.98078        34.37399        -0.00707
C         30.22415        36.22208         1.23227
C         29.01147        35.77921         0.46755
C         30.22411        37.60591         1.85373
C         29.00188        38.42969         1.79351
C         30.30396        40.36060         2.52671
C         29.03742        39.77565         2.21269
C         30.35426        41.82158         2.66495
C         29.08403        42.61405         2.86586
C         30.42175        44.62235         3.48910
C         29.21182        43.96841         3.49198
C         30.54923        46.07755         3.69776
C         29.27297        46.89124         3.64926
C         30.64812        48.90028         2.88403
C         29.25613        48.28409         3.12276
C         30.69426        50.02784         1.97910
C         29.51616        50.62477         1.53471
C         29.63496        51.82392         0.78861
C         31.87965        17.43049        -1.90417
C         33.02071        19.60378        -2.16965
C         31.85642        18.82355        -1.98864
C         32.97669        21.01664        -2.26478
C         31.67528        21.68043        -2.40231
C         32.88069        23.85871        -2.87780
C         31.62599        23.12179        -2.48214
C         32.80580        25.37667        -2.63051
C         31.57783        26.00059        -2.06256
C         32.80730        28.19256        -1.78554
C         31.57085        27.43151        -1.79890
C         32.80885        29.56863        -1.42704
C         31.54919        30.33675        -1.41298
C         32.72039        32.30074        -0.40090
C         31.48492        31.68548        -0.79641
C         32.70464        33.61871         0.06696
C         31.47615        34.32338         0.26641
C         32.72241        36.22053         1.34735
C         31.50995        35.59187         0.89922
C         32.72374        37.50524         2.00917
C         31.50880        38.24456         2.17709
C         32.73168        40.19236         3.15190
C         31.49037        39.59613         2.59583
C         32.81598        41.67060         3.38292
C         31.59559        42.48101         3.15620
C         32.98467        44.56451         3.36055
C         31.66330        43.97143         2.87981
C         33.03420        45.94911         3.43892
C         31.83620        46.73972         3.33812
C         31.86039        48.07968         3.05551
C         34.14649        21.79161        -2.19897
C         35.30215        23.94525        -2.15731
C         34.14232        23.20673        -2.33042
C         35.35952        25.37864        -2.28452
C         34.09088        26.13699        -2.48234
C         35.26084        28.20140        -1.78812
C         34.05747        27.52812        -1.96560
C         35.25994        29.54594        -1.30989
C         34.01379        30.23823        -1.14502
C         35.17620        32.19047        -0.25897
C         33.98785        31.58887        -0.60983
C         35.14133        33.38619         0.65294
C         34.02448        34.35124         0.23227
C         35.16146        36.10731         1.62307
C         33.96363        35.56460         1.13586
C         35.18821        37.41696         2.17906
C         33.97502        38.10159         2.35277
C         35.29474        40.18756         2.99661
C         34.01431        39.43016         3.00033
C         35.30016        41.59527         3.20554
C         34.13244        42.35596         3.34176
C         34.15486        43.76487         3.40151
C         36.52223        26.07149        -2.09578
C         37.77030        28.19402        -1.61339
C         36.55986        27.56811        -2.24611
C         37.74554        29.49202        -1.13514
C         36.49029        30.19341        -1.05030
C         37.75350        32.24982        -0.22070
C         36.46083        31.59515        -0.64435
C         37.68201        33.47159         0.61831
C         36.47379        34.06612         0.86420
C         37.72537        35.99582         2.00318
C         36.40653        35.30962         1.64371
C         37.66989        37.43563         2.25253
C         36.46662        38.08859         2.43216
C         36.46382        39.49282         2.74033
C         38.95960        30.13753        -0.66304
C         40.18439        32.07083         0.29077
C         38.98037        31.42171        -0.18364
C         40.17305        33.34180         0.77876
C         38.94537        34.08759         1.00827
C         38.96588        35.33804         1.57740
O         33.40072        26.07770        -3.78024
O         23.69925        22.17177        -2.68130
O         22.91577        36.34253         3.47255
O         27.08866        20.92458        -3.46256
O         23.70058        16.55728        -2.38775
O         19.30302        42.31310         4.07542
O         28.37472        32.16985        -2.31857
O         15.73207        19.48663        -1.58952
O         14.65770        41.41883        -0.87187
O         19.35377        47.29252        -1.27630
O         29.81838        49.21629         4.07411
O         36.96591        35.19278         2.99755
O         10.72637        27.81385         2.54858
O         20.77561        49.80690         0.93330
O         30.81616        30.19737        -2.66779
O         13.45653        27.41453        -0.97174
O         16.13592        48.93808        -0.15244
O         16.96200        46.66210         1.63197
O         29.45637        26.37234         0.04623
O         21.05601        23.01844        -1.88906
O         13.66457        39.07858         2.71696
O         23.96998        53.42866        -6.04014
O         25.08334        37.60050         3.49271
O         19.03868        12.21294         1.49696
O         22.83147        27.09312         2.00978
O         25.88648        15.92145         0.36450
O         20.73488        20.31840         1.64519
O         22.89100        45.47886         0.61863
O         27.87507        45.53068         5.00691
O         10.63051        35.21208        -0.90657
O         37.24981        32.48014        -1.57649
O         21.26401        29.55943        -0.86509
O         25.80117        11.21210        -2.13862
O         18.33703        24.20155        -1.71911
O         30.00124        46.70144         4.89465
O         31.65135        44.27414         1.51265
O         26.18668        30.81552        -2.11189
O         20.61551        52.73188        -1.30609
O         31.95791        42.10741         4.51155
O         21.97127        42.10980         4.48105
O         25.99309        35.74403        -0.91416
O         16.30673        43.74990         2.64493
O          8.37469        29.12405         2.43762
O         23.93624        29.72594         1.61664
O         24.00972        43.23678         4.77469
O         18.65971        28.98071         2.62911
O         29.05495        22.48600        -3.60446
O         24.41587        46.87986         3.61684
O         21.70384         8.07798         1.65893
O         15.87181        31.04063         3.07009
O         29.98795        36.36838         2.66546
O         33.28897        39.43831         4.28088
O         16.11006        25.39360        -1.59237
O         25.93225        23.60019        -3.19262
O         24.91240        25.97153        -2.54335
O         19.92163        26.73447         2.25843
O         28.53827        36.74526        -0.53447
O         25.38042        52.20099        -3.82793
O         24.96998        25.93049         0.96209
O         18.12205        39.97551         3.71648
O         24.05973        32.00833        -1.38833
O         15.89495        35.55994         3.51697
O         29.73699        42.52463         1.54694
O         14.26564        44.54851         1.17710
O         21.97637        24.60730         1.85871
H         22.52680        25.16744         2.45433
O         14.65973        31.48464        -0.36272
H         14.02045        31.06754        -0.97950
O         32.96308        23.64455        -4.31446
H         33.31021        24.48264        -4.70532
O         22.78303        21.51165         1.07969
H         22.20365        21.05775         1.77776
O         34.78907        32.84723         1.96526
H         35.10079        33.47288         2.65497
O         30.66155        19.83598        -0.20584
H         30.78122        18.97430         0.24821
O         17.42750        39.60701         0.50204
H         16.78728        39.59068        -0.24304
O         11.02684        35.53480         2.71566
H         11.66512        35.29514         3.42085
O          8.70647        32.63252        -1.47628
H          9.05521        33.47861        -1.83444
O         27.86790        34.59920        -2.05172
H         28.32029        33.96168        -2.65436
O         24.00245        51.24583         1.23274
H         24.70602        51.72326         1.73577
O         18.62579        43.90937        -0.10662
H         19.49196        44.32261        -0.31445
O         23.36194        33.07395         2.71028
H         22.67566        32.51431         3.13226
O         19.30833        47.44601         2.41459
H         18.92859        46.82757         3.08353
O         18.34990        19.13555         1.80956
H         19.23696        19.58114         2.00259
O         26.46593        43.48633         5.28593
H         26.62760        44.29786         5.81897
O         18.64189        44.85951         3.45063
H         18.77555        44.30229         4.25185
O         28.02582        23.09111        -0.22129
H         28.55587        23.71050         0.32613
O         14.34706        42.09423         2.67047
H         14.58785        42.99495         2.99870
O         23.50547        52.08337        -5.86893
H         24.26026        51.65934        -5.38112
O         24.27136        48.90900        -1.55506
H         23.70330        48.18360        -1.88905
O         36.67691        27.84607        -3.68943
H         36.57802        28.81375        -3.81564
O         26.56814        51.60040         2.25614
H         26.63815        51.09561         3.09582
O         34.38899        34.84999        -1.08644
H         33.64032        35.37684        -1.43620
H          4.79809        31.00404        -0.17861
H          4.83656        33.43089        -0.50655
H          7.22061        26.66777         0.54261
H          5.97282        28.86101         0.20524
H          6.08411        35.57720        -0.57925
H          7.44952        37.69881        -0.94106
H          9.82522        22.46558         0.51519
H          8.49672        24.53487         0.63261
H          8.83988        39.72448        -1.34865
H         10.20899        41.72567        -1.70619
H         12.38685        18.29223         0.27576
H         11.11404        20.39436         0.35904
H         11.66304        43.72265        -2.17344
H         13.08186        45.76591        -2.46955
H         15.05958        14.06308         0.09199
H         13.71573        16.11899         0.29767
H         14.33595        47.77601        -2.72892
H         15.80198        49.74714        -3.30281
H         17.93256         9.84018        -0.62320
H         16.26116        12.11101        -0.36552
H         17.25104        51.53204        -4.02167
H         18.73494        53.38086        -4.76778
H         20.59395         5.60439        -0.32721
H         19.06567         7.94296        -0.42143
H         20.24761        55.10551        -5.60755
H         21.78675        56.74206        -6.53311
H         24.04620         2.54945         0.55602
H         21.83457         3.65630         0.38779
H         25.52154        59.60573        -7.35919
H         23.32892        58.42322        -7.45538
H         26.13820         3.90851         0.53690
H         27.24137         6.04944         0.28324
H         28.15810        57.14165        -4.21047
H         27.34266        58.76638        -5.88502
H         28.39993         8.20675        -0.21175
H         29.49131        10.37601        -0.83714
H         29.77119        53.94655        -0.81828
H         28.96778        55.51850        -2.55454
H         30.59507        12.55446        -1.29157
H         31.71374        14.74436        -1.64052
H         31.66575        50.42357         1.64921
H         30.61929        52.31023         0.72987
H         32.83677        16.90168        -2.03418
H         33.99826        19.09890        -2.21941
H         33.98813        46.46031         3.64768
H         32.81674        48.55011         2.77836
H         35.10534        21.28720        -1.99861
H         36.23447        23.42140        -1.89235
H         36.27090        42.11397         3.18851
H         35.13400        44.27059         3.38994
H         37.45811        25.53126        -1.88554
H         38.73028        27.66039        -1.68573
H         38.61220        37.99954         2.31828
H         37.42798        40.02215         2.76992
H         39.88959        29.54922        -0.67885
H         41.13359        31.52041         0.21215
H         41.11650        33.81266         1.09203
H         39.92484        35.84543         1.76200
