         240
 CSIRO Nanostructure Databank - Neutral Graphene Oxide Data Set
C        -11.02813         0.62138         0.32795
C         -9.82896         1.41062         0.17642
C         -8.57090         0.73091        -0.03842
C         -7.33593         1.48738         0.01990
C         -6.08154         0.75802        -0.09159
C         -4.85312         1.44895         0.24736
C         -3.57751         0.78121         0.10889
C         -2.37403         1.39591         0.40285
C         -1.18636         0.81044        -0.33775
C          0.29118         1.42496         1.55157
C          1.15051         0.70634         0.79709
C          2.25479         1.30391        -0.02730
C          3.61381         0.79839         0.59101
C          4.72635         1.25756        -0.33365
C          6.00735         0.50408        -0.30655
C          7.26532         1.17529        -0.77959
C          8.56282         0.50874        -0.53454
C          9.77116         1.20142        -1.14145
C         11.05707         0.56493        -0.67806
C         -9.85605         2.79078         0.12782
C         -8.65773         3.58560         0.10662
C         -7.37801         2.87284         0.26810
C         -6.12355         3.54851         0.54830
C         -4.88856         2.80831         0.56148
C         -3.67516         3.48603         1.05889
C         -2.34788         2.71215         1.09525
C         -1.08405         3.54370         1.27366
C          0.26092         2.89331         1.42373
C          1.40597         3.55355         0.74414
C          2.28301         2.82313         0.00780
C          3.41055         3.46136        -0.72447
C          4.71117         2.68640        -0.82164
C          5.98695         3.40746        -0.88526
C          7.24462         2.67125        -1.01391
C          8.53338         3.40828        -0.91627
C          9.70770         2.70567        -0.90430
C         -8.81726         4.94389        -0.19083
C         -7.77867         5.92116         0.05852
C         -6.02672         4.90060         0.88411
C         -4.80922         5.65533         0.80032
C         -3.62268         4.95558         0.99424
C         -2.37892         5.70489         1.19287
C         -1.08821         5.00846         0.97332
C          0.07089         5.69466         0.78135
C          1.45126         5.05599         0.88845
C          2.46451         5.73664         0.00036
C          3.35802         4.97236        -0.94175
C          4.72717         5.63413        -1.12624
C          6.01411         4.84736        -1.14303
C          7.29803         5.57235        -0.96680
C          8.47382         4.85675        -0.84451
C         -7.28129         6.95075        -0.67587
C         -5.91866         7.61809        -0.50240
C         -4.85354         7.06354         0.45394
C         -3.69297         7.83126         0.59257
C         -2.45409         7.22326         1.13481
C         -1.16673         7.96783         0.93664
C          0.09768         7.17934         0.75330
C          1.16607         7.86225        -0.07769
C          2.46000         7.09924        -0.17113
C          3.62565         7.79785        -0.66796
C          4.79267         7.09735        -0.90684
C          6.08170         7.74832        -0.96103
C          7.25728         7.01293        -0.96404
C         -6.01342         9.12126        -0.37431
C         -4.89452         9.85248        -0.13754
C         -3.64159         9.21085         0.18994
C         -2.42250         9.94399         0.16197
C         -1.19117         9.35746         0.42785
C          0.09276        10.03517         0.35651
C          1.26067         9.33375         0.24137
C          2.65048         9.92393         0.29922
C          3.55984         9.30573        -0.79956
C          4.93514         9.92241        -0.81028
C          6.07601         9.20423        -0.88687
C        -10.98094        -0.73865         0.28293
C         -9.74471        -1.42589        -0.01948
C         -8.56116        -0.64069        -0.24245
C         -7.35720        -1.26693        -0.88461
C         -6.05667        -0.59515        -0.47877
C         -4.83040        -1.31775        -0.64544
C         -3.56746        -0.46190        -0.76346
C         -2.29383        -1.27272        -0.65409
C         -1.07513        -0.70734        -0.30345
C          0.13567        -1.44392         0.13638
C          1.14958        -0.74696         0.74697
C          2.37079        -1.30651         1.42960
C          3.65932        -0.70791         0.86314
C          4.83726        -1.37109         0.95965
C          6.11625        -0.65893         0.63313
C          7.44856        -1.33451         0.72709
C          8.62767        -0.72919         0.03744
C          9.88888        -1.47433         0.04672
C         11.10121        -0.69907        -0.21522
C         -9.66699        -2.80847        -0.04972
C         -8.44145        -3.50244        -0.38358
C         -7.30344        -2.76598        -0.77564
C         -6.06208        -3.40606        -1.35064
C         -4.80019        -2.70175        -0.87993
C         -3.54999        -3.39692        -1.08319
C         -2.40883        -2.62035        -1.12106
C         -0.66160        -3.75557        -0.51668
C          0.25040        -2.91519         0.21178
C          1.21886        -3.56370         0.94980
C          2.36960        -2.82097         1.50645
C          3.67346        -3.56166         1.59755
C          4.98489        -2.77038         1.59406
C          6.11372        -3.50194         0.86558
C          7.45564        -2.81922         0.96484
C          8.68490        -3.59026         0.61112
C          9.90662        -2.82443         0.25092
C         -8.40934        -4.90750        -0.29940
C         -7.25374        -5.66762        -0.75594
C         -6.04151        -4.94034        -1.25906
C         -4.71631        -5.67645        -1.30780
C         -3.43126        -4.88524        -1.30268
C         -2.07411        -5.66682        -1.10375
C         -1.01563        -5.03181        -0.20680
C         -0.13947        -5.76954         0.74104
C          1.10727        -5.02289         1.23175
C          2.37979        -5.77570         1.71188
C          3.66245        -5.02274         1.32449
C          4.82394        -5.69013         1.05239
C          6.05926        -4.97270         0.59002
C          7.33278        -5.65505         0.13194
C          8.51021        -4.97548         0.11226
C         -7.12441        -7.08485        -0.40433
C         -5.95656        -7.78341        -0.58910
C         -4.70860        -7.12954        -0.96266
C         -3.51444        -7.83754        -0.90170
C         -2.24708        -7.13763        -0.76142
C         -1.12388        -7.84085        -0.38008
C         -0.21849        -7.30567         0.71347
C          1.14497        -7.99549         0.80857
C          2.38226        -7.26568         1.24815
C          3.70198        -7.90640         0.99206
C          4.81456        -7.14205         1.13433
C          6.52120        -7.97291        -0.03105
C          7.24276        -6.95715        -0.56669
C         -5.94674        -9.20925        -0.31740
C         -4.79667        -9.92219        -0.33750
C         -3.52457        -9.27277        -0.58045
C         -2.35881        -9.97855        -0.47821
C         -1.05342        -9.29295        -0.78090
C          0.18166       -10.00671        -0.33179
C          1.29735        -9.35060         0.19144
C          2.52905       -10.00504         0.27453
C          3.82064        -9.41618         0.79202
C          4.91317        -9.84749        -0.19438
C          6.04280        -9.22449        -0.60242
O         -0.57502         0.86552         2.43838
H         -0.97798         1.60162         2.95837
O         -0.05712        -5.26552         2.11101
O         -3.16704         2.81808         2.28899
O          6.05903        -7.75349         1.28047
O          3.79466         1.45365         1.86250
H          3.28597         0.93522         2.53226
O         -7.52298        -0.95019        -2.31655
H         -6.88053        -1.53098        -2.80400
O         -6.96430        -5.47679        -2.26194
O          5.30705         5.24595        -2.41395
O          5.71073        -3.94787        -0.45285
O         -3.62495         0.05095        -2.13476
H         -2.78756         0.53297        -2.31069
O         -2.49372         6.54543         2.41371
O          2.67003         5.15600        -2.22239
H          3.25300         4.72824        -2.89436
O          9.73733         1.00651        -2.58686
H          8.83129         1.27569        -2.88140
O          6.96240        -0.45979         1.80799
O         -4.01797        -5.34672        -2.56844
O          2.30920        -0.77743         2.79439
H          2.53989        -1.52482         3.39725
O          2.13335         0.79796        -1.35574
H          2.72724         1.32268        -1.94733
O         -0.19387         7.80688         2.03180
O          7.17390         1.68242        -2.15127
O          5.03037         0.27737        -1.36917
O          4.09681       -10.04231         2.07416
H          3.41240        -9.71786         2.69894
O          2.86228        -3.28578         2.80341
O          1.59754        -8.07390         2.21205
O         -6.07324        -3.12204        -2.79628
H         -6.55553        -3.87573        -3.21481
O         -1.47641        -5.72920        -2.42984
H         -2.21870        -5.71873        -3.07869
O          2.35071        -5.80356         3.14669
H          1.40617        -5.85331         3.41548
O          2.93129         9.60322        -2.07448
H          2.08441         9.09491        -2.11447
O         -7.12732         5.63864         1.28702
O         -0.95274        -7.70838         1.90293
H         -0.28976        -7.78720         2.62810
O         -0.94044        -9.30435        -2.26044
H         -1.59253        -8.65703        -2.60720
O         -1.24282        -3.17523        -1.64337
O          8.28943        -3.34991         2.02877
O          5.40742        -2.59412         2.95223
H          4.60568        -2.57304         3.51986
O          3.78062         2.81510        -1.98979
O          1.86970         5.32769         2.25939
H          1.16052         4.98449         2.85010
O         -0.39301         3.45691         2.60223
O          3.23308         9.60710         1.56941
H          2.56104         9.74077         2.26887
O          0.69871         7.81388        -1.48393
H          1.02414         6.97596        -1.88747
O         -5.27169         7.39156        -1.81831
H         -5.75233         7.93078        -2.48191
O         -0.61443         1.50963        -1.16615
H         12.06727        -1.17327         0.01581
H         11.99075         1.12139        -0.85070
H         10.65969         3.25831        -0.86165
H          9.42404         5.40134        -0.73348
H          8.21743         7.55049        -0.92432
H          7.04868         9.71976        -0.89803
H          4.98659        11.02169        -0.77829
H          2.60071        11.04301         0.16423
H          0.11024        11.13603         0.41196
H         -2.45875        10.99568        -0.16059
H         -4.92565        10.95215        -0.17398
H         -6.96325         9.61941        -0.61936
H         -7.77194         7.18696        -1.63347
H         -9.80109         5.27796        -0.55706
H        -10.82410         3.31409         0.14678
H        -11.97944         1.14255         0.50991
H        -11.89118        -1.33711         0.43391
H        -10.55955        -3.41164         0.17284
H         -9.28634        -5.45196         0.07796
H         -8.02047        -7.61258        -0.04530
H         -6.90701        -9.69651        -0.09549
H         -4.79911       -11.00221        -0.13134
H         -2.37713       -11.05772        -0.26417
H          0.30654       -11.04172        -0.68655
H          2.57232       -11.04782        -0.07839
H          4.68742       -10.80486        -0.69445
H          6.63093        -9.67979        -1.41565
H          7.74480        -7.06333        -1.53968
H          9.39129        -5.45694        -0.33901
H         10.85862        -3.37390         0.19003
