         260
 CSIRO Nanostructure Databank - Neutral Graphene Oxide Data Set
C         30.27922        31.46374         0.13863
C         30.50321        32.68643         0.42122
C         30.48017        35.83699         1.17244
C         30.46160        37.06128         1.30222
C         30.47699        40.43758         1.35159
C         30.58496        41.67292         1.44246
C         32.73772        28.68948        -0.32961
C         31.62112        29.21660        -0.19772
C         32.73493        31.41543        -0.19960
C         31.45855        30.55288         0.47100
C         32.91545        32.76808         0.52808
C         31.57808        33.53730         0.59706
C         32.85914        35.75766         0.70502
C         31.61484        34.92174         1.02426
C         32.76417        37.26773         0.61639
C         31.59235        38.00293         1.27987
C         32.86739        40.27200         0.95236
C         31.60791        39.48711         1.33059
C         32.96809        41.65928         1.56916
C         31.71179        42.53647         1.58020
C         33.19317        44.33238         1.92271
C         31.99830        43.85521         1.81095
C         35.41135        27.06724        -0.61867
C         35.29329        28.50121        -0.46548
C         34.06428        29.25771        -0.42933
C         35.29161        31.40855        -0.51106
C         34.04125        30.64078        -0.29748
C         35.29688        32.91492        -0.46038
C         33.99340        33.60599        -0.18702
C         35.19509        35.90975        -0.34824
C         33.95100        35.11645        -0.11369
C         35.26122        37.24678        -0.05143
C         34.01897        38.02546         0.26162
C         35.46809        40.14463         0.77167
C         34.10666        39.52333         0.54631
C         35.57639        41.57335         1.21144
C         34.32894        42.31083         1.65389
C         35.76331        44.35384         1.95700
C         34.44733        43.80018         1.79411
C         36.05400        45.62963         2.54356
C         37.85511        26.99398        -0.77057
C         36.53851        26.53649        -0.81155
C         37.87133        28.43287        -0.22114
C         36.52165        29.13029        -0.26839
C         37.88580        31.20075         0.06766
C         36.58043        30.59609        -0.34054
C         37.64407        33.11647        -1.51986
C         36.37647        33.65328        -0.84968
C         37.61251        35.87516        -1.25673
C         36.33499        35.14386        -0.94283
C         37.60847        37.37214        -1.05090
C         36.54081        38.00577        -0.20600
C         37.74266        40.38059        -0.53256
C         36.66662        39.47047         0.13454
C         38.02076        41.66181         0.38940
C         36.71299        42.46335         0.65842
C         38.26877        44.30855         1.66207
C         36.92590        43.67346         1.58029
C         38.40487        45.78802         2.17630
C         37.09303        46.30536         2.54904
C         40.31308        24.27247        -0.59630
C         39.27206        24.91864        -0.87826
C         40.34781        27.01736        -0.79522
C         39.07909        26.31968        -0.89436
C         40.34292        28.49430        -0.99022
C         39.02819        29.24886        -0.84214
C         40.34500        31.49498        -0.35822
C         39.05645        30.68372        -0.42523
C         40.22615        32.89039        -1.00659
C         38.96255        33.66164        -0.99946
C         40.23067        35.91157        -1.35592
C         38.95152        35.16484        -1.07682
C         40.20211        37.39980        -1.29490
C         38.88987        38.10571        -1.10106
C         40.12084        40.11864        -1.33568
C         38.98651        39.53442        -0.76823
C         40.24055        42.28894        -0.88346
C         39.14557        42.68137        -0.00238
C         40.70334        44.51016         0.78466
C         39.32774        43.81381         0.74288
C         40.58977        46.04207         0.76793
C         39.43174        46.66551         1.54159
C         40.78545        48.68783         1.67729
C         39.77911        48.02894         1.95518
C         42.75138        24.42783         0.29197
C         41.54503        24.88932        -0.30195
C         42.81128        27.10726        -0.38517
C         41.54585        26.32701        -0.53731
C         42.76717        28.60855        -0.47480
C         41.61036        29.25654        -0.80041
C         42.84586        31.50966        -0.87761
C         41.52122        30.75626        -1.09736
C         42.71689        32.98053        -0.57189
C         41.48450        33.65226        -1.10195
C         42.75202        35.91868        -0.76398
C         41.53568        35.16577        -1.21445
C         42.71274        37.41118        -0.63907
C         41.42733        38.15658        -0.85583
C         42.64174        40.41628        -1.10839
C         41.42174        39.58470        -1.20273
C         42.59431        41.90199        -1.60539
C         41.54385        42.68176        -0.79090
C         43.07771        44.60811        -0.13376
C         41.65941        44.12289        -0.37028
C         43.18978        46.04603         0.42032
C         41.84629        46.82988         0.46221
C         43.35842        48.74381         0.96911
C         41.94861        48.33676         0.87350
C         43.64004        25.11545         0.84905
C         44.83051        27.39300         1.22528
C         43.99816        26.46003         0.38187
C         45.19299        28.69579         0.46262
C         44.08330        29.32957        -0.32715
C         45.21306        31.62562         0.13311
C         44.13636        30.82334        -0.52100
C         45.28830        33.10550        -0.24334
C         43.92102        33.79084        -0.24593
C         45.01959        36.13026         0.21473
C         43.89276        35.28466        -0.38425
C         45.16953        37.51495        -0.42953
C         43.97507        38.16709        -0.75645
C         45.27600        40.21754        -1.45657
C         43.96130        39.64511        -0.93671
C         45.29592        41.74614        -1.57643
C         44.00224        42.55254        -1.55575
C         45.37146        44.72387        -1.36100
C         44.16685        43.93340        -0.92009
C         45.37129        46.23740        -1.08537
C         44.30697        46.87600        -0.26950
C         44.29788        48.20125         0.37477
C         47.02279        27.62382         2.22391
C         46.13966        26.88800         1.76831
C         47.42878        28.97741         1.85137
C         46.34331        29.55691         0.95406
C         47.15886        31.82530         1.65292
C         46.20443        31.03470         0.91568
C         46.87845        33.23038         1.66261
C         46.16235        33.89394         0.70306
C         47.55134        36.16559         0.69424
C         46.32151        35.35262         0.38862
C         47.54273        37.65385         0.41701
C         46.38378        38.25420        -0.30510
C         47.67147        40.35074        -0.64889
C         46.47419        39.61859        -0.72260
C         47.74023        41.75306        -1.01843
C         46.59979        42.45800        -1.35984
C         47.98833        44.62729        -1.70259
C         46.63109        43.92843        -1.63816
C         47.75917        46.07011        -1.59448
C         46.75356        46.69748        -1.26879
C         49.33551        29.47431         3.45665
C         48.28375        29.87204         2.64221
C         49.49283        32.05897         2.73781
C         48.30798        31.29411         2.38143
C         49.73372        33.42362         2.20532
C         48.71086        34.31021         2.09129
C         50.07976        36.28245         1.26625
C         48.73859        35.66754         1.49665
C         50.18604        37.56350         0.48488
C         48.90512        38.28740         0.20652
C         50.30486        40.26940        -0.57776
C         48.95672        39.59789        -0.51379
C         50.25948        41.74889        -0.29294
C         49.03016        42.47959        -0.73497
C         50.49128        44.46499        -0.85480
C         49.19795        43.89514        -1.26902
C         50.35200        30.11662         3.85604
C         51.80114        32.21382         3.37269
C         50.60244        31.42311         3.41786
C         52.10385        33.13506         2.59922
C         51.12402        33.93934         1.85638
C         52.50032        36.21262         1.39168
C         51.29181        35.35185         1.39454
C         52.46333        37.32283         0.84301
C         51.41380        38.17085         0.34055
C         52.66634        40.37076         0.00988
C         51.63692        39.41204        -0.48066
C         52.76048        41.59803        -0.03618
C         51.80302        42.65643         0.26245
C         51.52201        43.85025        -0.54620
O         47.48108        33.99015         2.67432
O         45.33881        39.66027        -2.84094
O         37.15564        38.45343         1.05613
O         44.03041        43.73940         0.54033
O         37.62265        32.53549        -2.58003
O         37.95470        38.05164        -2.29623
O         45.76579        44.41255        -2.71788
O         39.49774        28.88173        -2.14302
O         41.85951        37.81461         0.51656
O         41.63305        47.93013        -0.46255
O         49.65597        39.80267        -1.80249
O         39.91718        41.37314        -1.86640
O         33.48297        34.39297        -1.29690
O         36.05175        30.95631        -1.66808
O         49.34101        36.55213         2.50446
O         51.32231        34.25038         0.45606
O         38.90075        34.52330         0.24203
O         43.82987        31.22487        -1.90714
O         49.32594        42.23829         0.70197
O         44.67149        42.26376        -2.80616
O         35.85133        40.50174         2.14141
O         31.85870        38.68693         2.51927
O         47.37147        35.51519        -0.62103
O         33.69434        41.68807         2.82389
O         41.76009        34.32775        -2.39136
O         48.86538        44.03165        -2.67425
O         32.67779        35.19832         2.03628
O         45.19527        28.62749        -0.97565
O         43.33667        40.33634         0.18508
O         38.82422        44.68223         2.99592
O         40.25647        36.71594        -2.57649
O         33.29075        40.26348        -0.43215
O         43.02552        33.30836         0.83267
O         36.72318        35.51903        -2.33230
O         48.11038        38.50308         1.43971
O         43.99095        26.54106        -1.04109
O         47.63708        29.11475         0.42038
O         32.98096        37.72938        -0.73713
O         39.40136        46.54688         0.09716
O         44.26199        46.90442        -1.71420
O         38.48083        41.08457         1.61460
H         38.44893        41.75052         2.33279
O         40.63677        31.67787         1.05563
H         41.34732        32.34752         1.18344
O         41.21022        44.89619        -1.51617
H         41.42889        44.42091        -2.34611
O         36.21582        43.00834        -0.58112
H         36.44435        42.39821        -1.32424
O         38.25333        28.31405         1.18150
H         37.53767        27.84362         1.66015
O         41.20748        30.89996        -2.48891
H         42.01367        30.69021        -3.00930
O         43.54892        45.92515         1.80739
H         43.87705        45.01214         1.97435
O         31.60219        30.43324         1.84175
H         30.85827        29.91982         2.21620
O         42.17455        41.92109        -2.97454
H         42.97523        41.83447        -3.54229
O         37.83976        32.22039         0.95896
H         38.76043        32.41577         1.26086
O         32.34817        31.72900        -1.53215
H         32.28731        30.90227        -2.05515
O         46.54596        40.16391        -3.45326
H         46.23478        40.96930        -3.93768
O         33.37137        32.51048         1.86040
H         33.27288        33.33901         2.38661
O         37.21263        40.81776        -1.79681
H         37.33657        40.08677        -2.44872
O         44.62085        36.39385         1.58946
H         43.77501        36.89416         1.58868
O         45.77583        33.22662        -1.59628
H         46.65530        32.80024        -1.66150
O         52.01947        38.98140        -1.78251
H         51.22601        39.00701        -2.36646
O         41.32344        44.09865         2.01264
H         40.67168        44.21943         2.74534
O         51.67635        42.86285         1.60491
H         50.86456        43.38101         1.78899
O         44.01084        27.80078         2.33114
H         43.84191        27.02146         2.90236
