         204
 CSIRO Nanostructure Databank - Neutral Graphene Oxide Data Set
C        -11.02135         0.64937        -0.65455
C         -9.80332         1.41156        -0.52380
C         -8.56607         0.69471        -0.38382
C         -7.34347         1.41103        -0.26719
C         -6.11325         0.69809        -0.10201
C         -4.88824         1.42730         0.01800
C         -3.66102         0.72831         0.19680
C         -2.43468         1.44098         0.27281
C         -1.19305         0.72361         0.43528
C          0.02644         1.41853         0.52158
C          1.26387         0.69672         0.59512
C          2.49744         1.38130         0.61228
C          3.69621         0.69509         0.33604
C          4.90965         1.43288         0.09412
C          6.13835         0.73861        -0.09561
C          7.37163         1.38925        -0.22199
C          8.61560         0.67395        -0.20378
C          9.85428         1.42521        -0.29463
C         11.08452         0.67012        -0.32348
C         -9.80075         2.80893        -0.53581
C         -8.58984         3.55276        -0.43602
C         -7.34298         2.84080        -0.31254
C         -6.12405         3.56011        -0.24626
C         -4.88302         2.84756        -0.08544
C         -3.64591         3.54133        -0.05379
C         -2.44395         2.85052         0.11992
C         -1.15180         3.61450        -0.03278
C          0.06707         2.86427         0.44983
C          1.24269         3.53478         0.62609
C          2.52543         2.83760         0.97965
C          3.72907         3.57959         0.43662
C          4.87004         2.86662         0.07982
C          6.06942         3.59608        -0.36882
C          7.38553         2.83334        -0.49771
C          8.64733         3.58932        -0.38157
C          9.85401         2.82081        -0.32462
C         -8.58152         4.96303        -0.45299
C         -7.37622         5.69755        -0.37314
C         -6.12678         4.99048        -0.29127
C         -4.91218         5.72106        -0.23103
C         -3.59621         5.00836        -0.40562
C         -2.42592         5.73459         0.22527
C         -1.27030         5.03777         0.48306
C         -0.03674         5.72770         0.92967
C          1.26404         4.99768         0.84716
C          2.51833         5.74216         0.59728
C          3.70648         5.02049         0.37744
C          4.93479         5.73901         0.12086
C          6.13115         5.04517        -0.15199
C          7.37382         5.72659        -0.28840
C          8.60387         4.97945        -0.37832
C         -7.35575         7.12109        -0.40597
C         -6.15859         7.83267        -0.31585
C         -4.91668         7.12187        -0.20266
C         -3.67614         7.85350        -0.01872
C         -2.50717         7.17363         0.31814
C         -1.30137         7.95844         0.65465
C         -0.00138         7.22530         0.90332
C          1.26774         7.90580         0.59712
C          2.48521         7.17155         0.49303
C          3.70922         7.87679         0.26176
C          4.93279         7.16426         0.11806
C          6.16724         7.86262        -0.09031
C          7.36305         7.14367        -0.24596
C         -6.11781         9.27756        -0.37655
C         -4.94167         9.96589        -0.31493
C         -3.67507         9.30035        -0.11468
C         -2.47929        10.01447        -0.06381
C         -1.23572         9.37314         0.23130
C         -0.00423        10.01335         0.22492
C          1.24595         9.31063         0.37565
C          2.47728         9.99383         0.19600
C          3.69696         9.30532         0.15818
C          4.95362         9.98841        -0.02594
C          6.13099         9.30297        -0.13235
C        -11.01178        -0.71633        -0.67310
C         -9.78279        -1.46227        -0.55384
C         -8.56284        -0.73204        -0.38833
C         -7.33669        -1.44513        -0.25937
C         -6.10234        -0.72427        -0.07800
C         -4.88039        -1.42557         0.14123
C         -3.66623        -0.70113         0.28813
C         -2.44855        -1.39749         0.49457
C         -1.21728        -0.71184         0.53959
C          0.01147        -1.44590         0.54493
C          1.24538        -0.72831         0.46528
C          2.45286        -1.42411         0.25224
C          3.65534        -0.72453         0.16782
C          4.85235        -1.43116        -0.39223
C          6.11620        -0.73235         0.03709
C          7.40529        -1.49616         0.01025
C          8.64639        -0.73190        -0.15209
C          9.87465        -1.46509        -0.27390
C         11.09836        -0.69630        -0.32785
C         -9.75893        -2.86538        -0.59358
C         -8.54253        -3.58568        -0.50893
C         -7.33389        -2.85539        -0.36577
C         -6.04808        -3.56390        -0.35608
C         -4.84677        -2.86825         0.13100
C         -3.71421        -3.58816         0.49665
C         -2.49386        -2.83090         0.82771
C         -1.18633        -3.57550         1.03285
C          0.03829        -2.87081         0.61320
C          1.20481        -3.59971         0.30429
C          2.39851        -2.84444        -0.24550
C          3.70577        -3.59206        -0.14239
C          4.88850        -2.92374        -0.18101
C          6.16229        -3.62829        -0.32659
C          7.37586        -2.94218        -0.29525
C          8.64755        -3.63977        -0.39271
C          9.86376        -2.86110        -0.32399
C         -8.52753        -5.03241        -0.48089
C         -7.37575        -5.77082        -0.28881
C         -6.06282        -5.08435        -0.28735
C         -4.89546        -5.74034         0.30697
C         -3.70467        -5.04310         0.56089
C         -2.47679        -5.77339         0.78159
C         -1.17765        -5.09457         1.16836
C          0.05284        -5.75864         0.59289
C          1.22737        -5.01728         0.39455
C          2.55963        -5.73643         0.42884
C          3.62124        -5.06064        -0.43933
C          4.95091        -5.77193        -0.35186
C          6.14268        -5.05934        -0.46107
C          7.40555        -5.77521        -0.85969
C          8.66429        -5.01459        -0.54457
C         -7.36250        -7.20837        -0.17451
C         -6.21761        -7.90267         0.16260
C         -5.00937        -7.16359         0.59517
C         -3.68265        -7.93595         0.74648
C         -2.43723        -7.16548         0.67541
C         -1.19557        -7.88441         0.50996
C          0.04105        -7.17690         0.45897
C          1.26555        -7.89348         0.19977
C          2.48732        -7.20964         0.11638
C          3.70445        -7.90128        -0.12125
C          4.93646        -7.19446        -0.28538
C          6.19106        -7.91799        -0.35444
C          7.38321        -7.23863        -0.50704
C         -6.14010        -9.34356         0.15091
C         -4.95647       -10.02616         0.25377
C         -3.68002        -9.36808         0.40513
C         -2.47111       -10.00361         0.21982
C         -1.21430        -9.29837         0.29137
C         -0.00299        -9.99368         0.09010
C          1.23799        -9.32578         0.04992
C          2.47300       -10.02076        -0.10205
C          3.68751        -9.34046        -0.16726
C          4.95401       -10.03722        -0.24587
C          6.13857        -9.36729        -0.28853
O         -1.02811        -5.36818         2.60495
H         -1.56130        -4.67985         3.06902
O          6.58499         3.18522        -1.67991
O         -5.79010        -4.38226        -1.55231
O          2.20578        -2.68589        -1.70795
H          2.98387        -2.10046        -1.98371
O         -0.91918         3.76131        -1.47472
H         -1.72026         4.20532        -1.85829
O          3.02080        -5.62127         1.80874
H          2.31267        -5.96513         2.39389
O          3.20339        -5.19198        -1.82963
H          2.75198        -4.34098        -2.08368
O          7.36109        -5.79052        -2.35773
H          6.44548        -6.04027        -2.61305
O          6.68190        -1.20051         1.29473
O          2.63693         2.89193         2.44793
H          2.17535         3.70388         2.75457
O         -1.90131        -3.01377         2.18399
O         -3.32963         5.05264        -1.86767
H         -4.08961         4.62146        -2.31491
O         -4.51222        -7.58702         1.90126
O         -0.77316         7.78199         2.01980
O          0.60974         5.24515         2.17183
O          4.50479        -1.19176        -1.75763
H         12.05506        -1.23690        -0.37757
H         12.03293         1.22613        -0.36829
H         10.81734         3.35404        -0.32885
H          9.54929         5.54356        -0.36667
H          8.30940         7.69239        -0.36595
H          7.07580         9.84779        -0.27575
H          4.94747        11.08690        -0.08342
H          2.46834        11.08585         0.06088
H          0.03827        11.08894        -0.00589
H         -2.49001        11.10091        -0.24034
H         -4.94361        11.06371        -0.38720
H         -7.06719         9.81985        -0.49845
H         -8.30637         7.66675        -0.50357
H         -9.53575         5.50523        -0.53175
H        -10.75248         3.35205        -0.63672
H        -11.97135         1.19563        -0.75100
H        -11.95369        -1.27345        -0.78526
H        -10.70416        -3.41810        -0.70293
H         -9.49498        -5.55517        -0.53445
H         -8.28717        -7.76176        -0.40066
H         -7.07012        -9.90488        -0.02490
H         -4.95900       -11.12226         0.15650
H         -2.45192       -11.07676        -0.02477
H         -0.03095       -11.08481        -0.05008
H          2.46248       -11.12006        -0.15379
H          4.94282       -11.13739        -0.24384
H          7.08731        -9.92284        -0.32666
H          8.32176        -7.80763        -0.59945
H          9.62570        -5.54494        -0.62526
H         10.82295        -3.39751        -0.38978
