         490
 CSIRO Nanostructure Databank - Neutral Graphene Oxide Data Set
C         37.88847        50.57619         2.54266
C         37.01169        51.33242         3.27598
C         38.31774        53.34958         2.84403
C         37.19344        52.72756         3.42349
C         40.35430        48.97089         2.06214
C         40.33783        50.37374         1.88875
C         39.03434        51.17744         1.78274
C         40.50082        53.34177         1.60912
C         39.23742        52.64805         2.08892
C         40.27355        54.52275         0.68479
C         42.69408        48.76422         1.32928
C         41.48171        48.19542         1.71293
C         42.82649        50.26826         1.49304
C         41.50812        51.00970         1.47904
C         42.31841        52.71838        -0.02099
C         41.46677        52.36437         0.99952
C         42.29900        54.05017        -0.76097
C         41.11823        54.87540        -0.29429
C         44.99126        45.84234         0.66260
C         43.86699        46.58145         0.95921
C         45.04416        48.63770         0.42607
C         43.86279        48.00870         0.89622
C         45.14704        50.15086         0.41483
C         43.77295        50.77685         0.44063
C         45.07030        52.81347        -1.20180
C         43.30864        51.74375        -0.39884
C         44.92507        54.16393        -0.98153
C         43.65470        54.80806        -0.68470
C         44.93781        56.85064        -0.12791
C         43.70720        56.11644        -0.25289
C         47.48773        44.28477         0.27510
C         47.44900        45.72656         0.14983
C         46.21782        46.46462         0.29664
C         47.44982        48.56127        -0.18300
C         46.22154        47.88603         0.15439
C         47.45074        49.98207        -0.43549
C         46.22744        50.71675        -0.50963
C         47.50148        52.78676        -1.02051
C         46.27299        52.06088        -0.94114
C         47.48589        54.24279        -1.01887
C         46.18225        55.00015        -1.19101
C         47.41962        57.07093        -0.37653
C         46.15838        56.33594        -0.49119
C         47.44637        58.46414        -0.12600
C         49.89253        44.18768        -0.21677
C         48.63116        43.56024         0.08148
C         49.97038        45.67393         0.05636
C         48.65137        46.40932        -0.10329
C         49.91454        48.50704        -0.50237
C         48.65744        47.82120        -0.27582
C         49.91554        49.92261        -0.56882
C         48.67986        50.65959        -0.62150
C         49.96053        52.77848        -0.94751
C         48.68824        52.06481        -0.85100
C         49.95489        54.28279        -0.90262
C         48.65356        54.96475        -0.82614
C         49.89329        57.09383        -0.37012
C         48.65432        56.39283        -0.53787
C         49.89214        58.50524        -0.14999
C         48.63909        59.16315        -0.05161
C         52.33566        41.40810        -0.39453
C         51.12571        42.03951        -0.42984
C         52.26165        44.15282        -1.10561
C         51.04186        43.47597        -0.51563
C         52.27184        45.65411        -0.95220
C         51.16062        46.35049        -0.58275
C         52.34894        48.51180        -0.89786
C         51.14182        47.80387        -0.64763
C         52.34024        49.93197        -0.83039
C         51.15224        50.61692        -0.63363
C         52.42430        52.81735        -0.50149
C         51.12965        52.08416        -0.31859
C         52.39766        54.26775        -0.34693
C         51.19133        54.97791        -0.47867
C         52.37671        57.09647        -0.13621
C         51.15423        56.39046        -0.35010
C         52.35570        58.52199         0.00585
C         51.14668        59.21531         0.00486
C         52.33292        61.37385         0.15264
C         51.18577        60.66631         0.20645
C         54.87819        40.13595         0.34571
C         54.84737        41.45299        -0.12712
C         53.59092        42.13372        -0.43440
C         54.80771        44.23551        -0.88495
C         53.57600        43.48848        -0.73219
C         54.77745        45.58982        -1.18817
C         53.50129        46.34937        -1.49871
C         54.81019        48.50387        -1.13586
C         53.58729        47.81630        -1.12875
C         54.85824        49.96122        -1.02568
C         53.56468        50.71659        -1.20003
C         54.90305        52.73941        -0.31853
C         53.57811        52.11686        -0.63679
C         54.88086        54.24876        -0.26932
C         53.63050        54.97134        -0.18110
C         54.86184        57.09976         0.19714
C         53.60551        56.37775        -0.06752
C         54.90478        58.55117         0.11178
C         53.61919        59.27434         0.40506
C         54.90041        61.48999         0.28605
C         53.64294        60.69541        -0.18212
C         54.96021        62.82034        -0.41176
C         57.30379        40.19778         0.55538
C         56.09088        39.52807         0.69329
C         57.32521        41.52820         0.05935
C         56.08144        42.16135        -0.26944
C         57.30789        44.16678        -0.89321
C         56.07451        43.52516        -0.69133
C         57.32385        45.59745        -1.25533
C         56.02933        46.33496        -1.37849
C         57.29171        48.48394        -1.22354
C         56.05777        47.80484        -1.21773
C         57.31041        49.96396        -1.50608
C         56.03396        50.64940        -1.08619
C         57.33697        52.81502        -0.83135
C         56.01852        52.15815        -1.18516
C         57.32699        54.17062        -0.51936
C         56.10185        54.89742        -0.25964
C         57.42526        57.07730        -0.01919
C         56.15724        56.32264         0.12784
C         57.43631        58.50542         0.10225
C         56.18521        59.24824         0.52766
C         57.38273        61.34987        -0.18828
C         56.18950        60.70324         0.10983
C         57.40212        62.76472        -0.48978
C         56.13260        63.41876        -0.71506
C         59.89725        37.48362         0.75002
C         58.71219        38.10346         0.59786
C         59.84006        40.29190         0.85135
C         58.55275        39.52877         1.06881
C         59.84146        41.64859         0.33071
C         58.56928        42.22568        -0.12432
C         59.84996        44.12342        -1.20666
C         58.54864        43.51606        -0.66322
C         59.74441        45.65632        -1.27221
C         58.54048        46.35216        -0.74783
C         59.76737        48.49783        -1.26728
C         58.53081        47.80795        -1.13834
C         59.79997        49.91871        -1.07618
C         58.56697        50.65895        -1.04370
C         59.79911        52.70359        -0.45236
C         58.54489        52.03461        -0.82989
C         59.87872        54.17615        -0.62820
C         58.58355        54.94120        -0.57421
C         59.88368        57.03302         0.02888
C         58.59392        56.36699        -0.22265
C         59.90379        58.50774        -0.08699
C         58.64492        59.20826        -0.06753
C         59.87410        61.32897        -0.30890
C         58.65403        60.63976        -0.17652
C         59.88538        62.76583        -0.45654
C         58.62816        63.46332        -0.56346
C         59.84512        65.57951        -0.66120
C         58.66350        64.88931        -0.69024
C         62.31225        36.07243         1.46369
C         62.26104        37.51042         1.48108
C         61.08083        38.19823         1.22804
C         62.24250        40.45036         1.45226
C         61.01792        39.65050         1.18976
C         62.20573        41.95689         1.10966
C         61.02511        42.35593         0.24295
C         62.44990        44.20368        -0.75056
C         61.05171        43.77974        -0.25860
C         62.64550        45.25990        -1.61215
C         60.75550        46.37513        -1.81450
C         62.26835        48.40811        -1.45057
C         60.99412        47.78256        -1.52091
C         62.28583        49.82485        -1.17815
C         61.06368        50.53130        -0.94723
C         62.33385        52.71008        -0.78225
C         61.11096        51.93731        -0.52696
C         62.34857        54.14117        -0.56433
C         61.17540        54.82867        -0.36112
C         62.43823        56.99618        -0.13265
C         61.16795        56.25539         0.00026
C         62.38591        58.45646         0.26746
C         61.11037        59.18750        -0.10305
C         62.35789        61.31109        -0.31115
C         61.12722        60.61897        -0.23641
C         62.37588        62.75692        -0.43473
C         61.10557        63.47303        -0.50175
C         62.32278        65.64226        -0.50111
C         61.10634        64.90930        -0.56690
C         62.37418        67.03869        -0.34161
C         64.76531        36.09597         1.34778
C         63.49916        35.40241         1.45892
C         64.78935        37.49568         1.45406
C         63.53534        38.19033         1.94962
C         64.81275        40.38847         1.45382
C         63.53110        39.70587         1.72701
C         64.76154        41.90307         1.41386
C         63.56161        42.48509         0.65659
C         64.95608        44.19052        -0.52756
C         63.62996        43.61139        -0.12808
C         65.06833        45.55163        -1.19787
C         63.79514        46.18114        -1.65342
C         64.85858        48.51398        -1.26733
C         63.61516        47.71903        -1.59800
C         64.77682        49.91913        -1.26469
C         63.50788        50.58479        -1.23126
C         64.61339        52.84062        -1.72340
C         63.46514        52.02505        -1.18538
C         64.91715        54.14667        -0.89644
C         63.65771        54.84463        -0.44301
C         64.87736        57.06486        -0.32578
C         63.61881        56.33101        -0.32572
C         64.86438        58.46169        -0.16019
C         63.62580        59.19758        -0.11897
C         64.88319        61.26881        -0.48106
C         63.59536        60.56808        -0.29996
C         64.87829        62.76836        -0.50990
C         63.57318        63.45856        -0.46807
C         64.83571        65.61608        -0.13105
C         63.63146        64.93326        -0.75019
C         64.81078        67.02218         0.00712
C         63.58017        67.70958        -0.15925
C         67.17535        33.27017         0.81442
C         66.00120        33.95352         1.01251
C         67.20379        36.08887         0.95337
C         65.97955        35.37386         1.10694
C         67.19225        37.51201         1.00890
C         66.00310        38.21271         1.28616
C         67.27797        40.37517         1.31047
C         66.00577        39.68519         1.34475
C         67.28945        41.81731         1.22460
C         66.08443        42.47585         1.01142
C         67.33960        44.56102         0.41943
C         66.15522        43.69276         0.19320
C         67.37075        45.93628        -0.13659
C         66.25632        46.42688        -0.99742
C         67.37080        48.61574        -1.03966
C         66.15728        47.90580        -1.13751
C         67.35907        50.14372        -1.01963
C         65.99668        50.70042        -1.46261
C         67.75050        53.12543        -1.66109
C         65.81634        51.97789        -1.90523
C         67.52341        54.37156        -1.03233
C         66.16041        55.05151        -1.19607
C         67.28348        57.01043         0.01917
C         66.12022        56.36989        -0.42220
C         67.29468        58.42762         0.24907
C         66.10047        59.16656        -0.02264
C         67.29018        61.29480         0.23752
C         66.11526        60.57514        -0.05515
C         67.27101        62.73859         0.28703
C         66.07627        63.47988        -0.01436
C         67.12642        65.56557         0.90078
C         66.00179        64.86663         0.17772
C         67.20765        67.03321         0.57343
C         66.05692        67.74506         0.29373
C         67.18788        69.88900         0.74021
C         66.07851        69.19147         0.38178
C         69.67186        31.79499         0.44302
C         69.66435        33.20529         0.56544
C         68.42245        33.95031         0.70660
C         69.69294        36.07195         0.70741
C         68.43330        35.36002         0.76477
C         69.70918        37.49021         0.72485
C         68.42206        38.26298         0.55901
C         69.72599        40.34022         1.08983
C         68.49491        39.67562         1.09213
C         69.79737        41.78958         1.51563
C         68.54993        42.53898         1.11634
C         69.82453        44.63580         0.64787
C         68.60365        43.88151         0.77318
C         69.85981        45.89052         0.03639
C         68.66821        46.59738        -0.35450
C         69.90438        48.67636        -0.79418
C         68.62049        47.92362        -0.79990
C         69.93348        50.11464        -1.17302
C         68.66137        50.78670        -1.68792
C         69.96038        52.87832        -0.80793
C         68.79564        52.27414        -1.36762
C         69.87364        54.23969        -0.37712
C         68.61179        54.91691        -0.35804
C         69.76297        56.98149         0.49793
C         68.48319        56.18678         0.43761
C         69.67156        58.36316         1.09265
C         68.46205        59.14590         0.61955
C         69.67402        61.30758         0.90915
C         68.47150        60.56270         0.62122
C         69.68190        62.68841         0.80386
C         68.46229        63.42602         0.63053
C         69.59931        65.52818         1.25203
C         68.45623        64.85176         0.83964
C         69.64098        66.96408         1.30607
C         68.49788        67.70988         0.73716
C         69.64315        69.88338         1.53080
C         68.50277        69.24388         0.82638
C         69.62714        71.26009         1.80757
C         72.08540        31.77226         0.34381
C         70.85973        31.08859         0.33256
C         72.10500        33.15372         0.45723
C         70.90592        33.89813         0.56648
C         72.13185        36.07385         0.67382
C         70.91820        35.34863         0.65720
C         72.13947        37.45523         0.71196
C         70.92906        38.18668         0.70762
C         72.08999        40.38228         0.48649
C         70.93949        39.65200         0.75293
C         72.11072        41.80849         0.57765
C         71.04779        42.51131         1.06295
C         72.34832        44.66893         0.84336
C         71.06385        44.01621         1.28061
C         72.39381        45.79438         0.12025
C         71.16930        46.47298        -0.35484
C         72.43669        48.71235        -0.81181
C         71.19195        47.90460        -0.82508
C         72.45923        50.01699        -1.11107
C         71.24785        50.82567        -1.51001
C         72.34621        52.88200        -0.40860
C         71.21457        52.20177        -0.83687
C         72.27329        54.22629         0.00594
C         71.06835        54.92700        -0.00037
C         72.18174        57.14855         0.37660
C         70.99814        56.36447         0.31308
C         72.12875        58.52365         0.67828
C         70.94872        59.15461         1.01212
C         72.15158        61.36034         1.36848
C         70.86928        60.58327         1.51097
C         72.18676        62.67025         1.11162
C         70.96763        63.49697         0.81108
C         72.02344        65.53929         1.93271
C         70.78345        64.71217         1.74220
C         71.98686        66.88618         2.00270
C         70.78225        67.65164         1.72421
C         71.86044        69.76088         2.52280
C         70.77574        69.10367         1.89640
C         71.83164        71.12675         2.77934
C         70.71022        71.88307         2.42388
O         65.86973        43.25952        -1.20211
O         65.05473        61.99030        -1.75849
O         69.90453        49.74501         0.24307
O         66.10955        45.63023        -2.21847
O         55.55724        56.56552         1.46581
O         60.49419        56.52112         1.31213
O         67.01975        45.72528         1.27771
O         61.69586        45.64410        -2.54090
O         66.82076        52.65675        -2.60229
O         43.98777        52.01655        -1.59796
O         50.17929        53.52278        -2.16545
O         56.84213        45.93115        -2.57536
O         60.00354        43.61847        -2.48015
O         68.88768        68.55033        -0.40294
O         63.85297        46.98670        -2.85456
O         60.44103        52.22212         0.75824
O         59.28889        54.66878        -1.87678
O         71.19658        46.81850        -1.79842
O         64.56656        54.12380         0.49119
O         62.74718        40.31243         2.83161
O         58.52418        46.25835         0.70745
H         59.31419        45.72655         0.98659
O         50.85765        52.16934         1.12577
H         51.49028        51.58080         1.58928
O         52.13293        43.92473        -2.56790
H         52.22595        42.95894        -2.71822
O         56.22443        59.22882         2.01182
H         56.17384        58.27180         2.25903
O         54.77818        61.76528         1.70460
H         54.79815        60.89220         2.16817
O         63.85511        65.02721        -2.21146
H         63.24405        64.39527        -2.64670
O         50.24808        45.75903         1.50571
H         49.49297        45.33861         1.97028
O         53.45675        50.91610        -2.65214
H         54.17641        51.55160        -2.90269
O         62.39142        58.43874         1.73996
H         61.68007        57.80346         2.01039
O         66.04734        55.45407        -2.58356
H         65.70823        54.68549        -3.10029
O         61.92107        42.65183         2.37325
H         62.71447        42.49572         2.94864
O         70.42221        64.17545         3.04348
H         70.16854        64.92269         3.62376
O         53.38202        46.33948        -2.95950
H         53.04118        45.44554        -3.20881
O         58.36870        39.46115         2.52596
H         59.19313        39.09209         2.90891
O         70.61387        60.51070         2.94775
H         69.85316        59.89520         3.08033
O         71.33786        51.03797        -2.93837
H         70.42979        50.97603        -3.32231
O         38.68861        51.08881         0.34771
H         37.84156        51.56736         0.22365
O         53.74877        60.59776        -1.62082
H         52.94343        60.14939        -1.95484
O         41.17349        53.86935         2.79766
H         40.60180        54.56437         3.18557
O         70.96098        44.25201         2.71491
H         70.31680        43.59659         3.08011
O         68.61312        50.58942        -3.11607
H         67.92951        51.20463        -3.47010
O         43.38670        50.47324         2.84874
H         42.76230        50.06321         3.48448
O         69.80753        41.78878         3.00054
H         70.58568        41.26194         3.28344
O         55.22206        52.30395         1.04550
H         54.67292        52.82597         1.66768
O         64.21465        53.36701        -3.03041
H         64.00963        52.61051        -3.61983
O         42.05101        53.79396        -2.16401
H         42.71409        53.12543        -2.45797
O         68.25389        38.43159        -0.89741
H         68.22064        37.53522        -1.29423
O         63.58322        37.98363         3.39651
H         63.01610        38.68750         3.79061
O         71.13348        64.04546        -0.52249
H         71.19481        63.30129        -1.15638
O         45.77312        50.49235         1.70535
H         45.07346        50.44872         2.40430
O         69.40630        58.12621         2.56203
H         70.20060        57.66793         2.91634
O         68.19233        55.77260         1.81668
H         68.25660        56.58600         2.37410
O         67.37902        50.53723         0.37475
H         68.23661        50.22294         0.75908
O         66.76254        65.50990         2.33977
H         65.86195        65.89084         2.42442
O         64.57149        42.35271         2.82128
H         65.10013        41.75953         3.39738
O         46.13122        55.32028        -2.63576
H         45.31822        55.84854        -2.78565
O         60.83086        44.62587         0.92529
H         61.23495        44.14477         1.69929
O         57.31818        50.11617        -2.98468
H         56.72486        49.42492        -3.35350
O         53.52615        59.40598         1.86423
H         53.68301        58.51743         2.24942
O         55.75444        52.48117        -2.58327
H         56.41068        51.96393        -3.11107
H         37.69209        49.50239         2.41157
H         36.15122        50.85070         3.76310
H         38.46850        54.42869         3.01184
H         36.47566        53.32016         4.00516
H         39.43269        48.44181         2.34024
H         39.40577        55.16681         0.90576
H         41.35434        47.10329         1.69263
H         40.88616        55.76599        -0.90028
H         44.93532        44.74905         0.75219
H         42.95931        46.05070         1.27767
H         44.87306        57.85703         0.31206
H         42.78418        56.61782         0.07284
H         46.55367        43.74113         0.47061
H         46.50222        59.01640        -0.01994
H         48.56539        42.46307         0.09652
H         48.59862        60.24801         0.11302
H         52.35400        40.31609        -0.28031
H         50.21148        41.44404        -0.29567
H         52.30979        62.46386         0.29966
H         50.24399        61.19654         0.40677
H         53.94957        39.56836         0.49003
H         54.01493        63.34378        -0.61779
H         56.07668        38.51074         1.10867
H         56.12034        64.41832        -1.17277
H         59.99641        36.42897         0.45933
H         57.84042        37.55333         0.21450
H         59.81946        66.67444        -0.73894
H         57.72420        65.45164        -0.77299
H         61.37918        35.49259         1.45378
H         61.44660        67.62719        -0.30731
H         63.48092        34.30516         1.46438
H         63.54517        68.80135        -0.05222
H         67.13921        32.17462         0.76240
H         65.07137        33.37878         1.10831
H         67.09758        70.96278         0.95740
H         65.13443        69.74217         0.27473
H         68.72799        31.23459         0.42798
H         68.75856        71.86747         1.51864
H         73.02786        31.21415         0.25779
H         70.84102        29.99427         0.23638
H         73.07599        33.66622         0.45555
H         73.09389        35.54573         0.66009
H         73.10268        37.98213         0.73853
H         73.00808        39.87548         0.16184
H         73.02616        42.33079         0.26406
H         73.28635        44.22486         1.20939
H         73.36546        46.22590        -0.16089
H         73.38285        48.19201        -0.60206
H         73.43143        50.53028        -1.14894
H         73.33195        52.39773        -0.43006
H         73.20428        54.72643         0.30571
H         73.15713        56.69706         0.15590
H         73.07064        59.08981         0.65452
H         73.09321        60.83638         1.59236
H         73.16012        63.18162         1.04750
H         72.97078        65.01384         2.12242
H         72.92195        67.42604         2.20600
H         72.74781        69.19328         2.83144
H         72.69005        71.60943         3.26650
H         70.68378        72.96324         2.62186
