         284
 CSIRO Nanostructure Databank - Neutral Graphene Oxide Data Set
C        -10.99535         0.54543         0.72251
C         -9.97370         1.37095         0.03077
C         -8.74772         0.65181        -0.46037
C         -7.49049         1.44582        -0.69542
C         -6.20257         0.70608        -0.61614
C         -5.01505         1.35662        -0.39560
C         -3.76122         0.61499        -0.38621
C         -2.44722         1.38300        -0.34110
C         -1.23205         0.58573         0.17044
C          0.04723         1.41490        -0.09328
C          1.24861         0.72610        -0.68510
C          2.54666         1.48385        -0.68233
C          3.80444         0.76066        -1.04230
C          5.05323         1.54283        -0.82304
C          6.32462         0.77940        -0.75889
C          7.53874         1.51447        -0.22625
C          8.83507         0.76001        -0.52320
C         10.15421         1.50597        -0.31717
C         10.87904         0.87378         0.86313
C         -9.99196         2.88021         0.30269
C         -8.74444         3.65486        -0.10931
C         -7.50547         2.93482        -0.53448
C         -6.23021         3.62068        -0.17962
C         -5.03602         2.77631         0.08811
C         -3.77996         3.47581         0.49993
C         -2.42919         2.78677         0.35714
C         -1.34509         3.62767        -0.37521
C          0.00056         2.90192        -0.27706
C          1.19117         3.65373        -0.82908
C          2.53739         2.96902        -0.80684
C          3.79860         3.67154        -1.32128
C          5.06311         2.91671        -0.87466
C          6.32911         3.63979        -0.77757
C          7.52453         2.98139        -0.59878
C          8.78930         3.68845        -0.41574
C          9.96355         3.00575        -0.20390
C         -8.69473         5.00232        -0.01715
C         -7.44696         5.77464        -0.42115
C         -6.20445         4.96503         0.00387
C         -5.06721         5.68066         0.63973
C         -3.72627         4.97139         0.88590
C         -2.56505         5.73289         0.22904
C         -1.24803         5.02005         0.20736
C          0.01054         5.78885         0.02847
C          1.17465         5.13822        -0.65883
C          2.47982         5.88810        -0.65632
C          3.76908         5.16535        -0.93106
C          5.04242         5.78314        -0.36191
C          6.29951         5.14601        -1.03005
C          7.55399         5.83770        -0.51012
C          8.71895         5.13911        -0.32105
C         -7.37615         7.18141         0.10496
C         -6.15639         7.97557        -0.15035
C         -5.06288         7.17020         0.71815
C         -3.66230         7.92012         1.00097
C         -2.54164         7.21814         0.22607
C         -1.23605         7.95097         0.21152
C         -0.01074         7.27245         0.08466
C          1.22449         7.95397         0.15285
C          2.51574         7.16262         0.18231
C          3.76177         7.97474        -0.05417
C          5.02350         7.31424        -0.61818
C          6.30600         7.95328        -0.12670
C          7.48412         7.24861        -0.19166
C         -6.14950         9.41181         0.32156
C         -5.00379        10.06128         0.62302
C         -3.70397         9.39904         0.64979
C         -2.52166        10.05785         0.46231
C         -1.23954         9.35701         0.37902
C         -0.00069        10.03157         0.43205
C          1.22631         9.34768         0.34944
C          2.52991        10.09028         0.58564
C          3.77856         9.30917         0.22540
C          5.04887        10.01624         0.27892
C          6.24317         9.35870         0.19546
C        -10.93240        -0.80429         0.74098
C         -9.78588        -1.56636         0.24929
C         -8.62214        -0.82212        -0.24852
C         -7.47483        -1.48223        -0.59278
C         -6.25470        -0.73157        -0.98323
C         -4.94188        -1.46751        -1.13548
C         -3.72881        -0.71184        -0.74053
C         -2.45699        -1.50375        -0.79603
C         -1.19104        -0.78502        -0.44778
C         -0.03108        -1.47871        -0.50000
C          1.23792        -0.76329        -0.78445
C          2.52236        -1.52742        -0.80600
C          3.79657        -0.73649        -0.92465
C          5.03208        -1.38765        -0.40065
C          6.34136        -0.71045        -0.64123
C          7.51635        -1.37947         0.12029
C          8.83991        -0.72348        -0.32996
C         10.13420        -1.41533         0.12659
C         10.87080        -0.45345         1.05790
C         -9.75712        -2.92920         0.36022
C         -8.49806        -3.74396         0.14397
C         -7.47243        -2.97423        -0.69245
C         -6.23026        -3.70569        -1.11063
C         -4.86216        -3.00621        -1.24700
C         -3.82927        -3.61996        -0.28856
C         -2.58941        -2.82165        -0.05525
C         -1.29191        -3.52929         0.22473
C         -0.04064        -2.98385        -0.49900
C          1.20289        -3.46551         0.27850
C          2.51261        -2.92890        -0.30166
C          3.75317        -3.58332         0.29462
C          5.03793        -2.82422         0.02572
C          6.30632        -3.57312        -0.09466
C          7.49961        -2.89908        -0.03621
C          8.72562        -3.62535         0.27638
C          9.87437        -2.78043         0.82881
C         -8.74651        -5.12606        -0.45281
C         -8.11440        -6.22501        -0.06222
C         -6.03260        -5.21889        -1.13384
C         -5.06760        -5.81918        -0.12553
C         -3.68485        -5.15496        -0.25177
C         -2.69147        -5.63699         0.87375
C         -1.31786        -4.97377         0.62041
C         -0.11307        -5.76597         0.10164
C          1.21164        -5.00599         0.34372
C          2.49761        -5.76599         0.15337
C          3.79247        -5.05180        -0.04904
C          4.94959        -5.73808        -0.16095
C          6.28517        -5.05039        -0.41937
C          7.48221        -5.78446         0.16089
C          8.67157        -4.98931         0.45126
C         -7.70089        -7.41664         0.33531
C         -6.37704        -8.11298        -0.00565
C         -5.16817        -7.22661         0.37334
C         -3.88148        -7.95923         0.72824
C         -2.61831        -7.18508         0.92936
C         -1.28355        -7.90855         0.88821
C         -0.00370        -7.17491         0.65845
C          1.31098        -7.95038         0.40862
C          2.35278        -7.16846        -0.44627
C          3.69957        -7.96590        -0.53878
C          4.91875        -7.23261         0.10106
C          6.24830        -7.91902        -0.29050
C          7.42952        -7.14469         0.26947
C         -6.27093        -9.44658         0.71050
C         -5.09899       -10.08066         0.84595
C         -3.81245        -9.44202         0.35766
C         -2.56992       -10.13853         0.96845
C         -1.26602        -9.39083         0.70490
C         -0.13799       -10.04734         0.34030
C          1.11948        -9.36869        -0.17098
C          2.45616       -10.06927         0.06272
C          3.64002        -9.40550        -0.06844
C          4.94568       -10.02266         0.18937
C          6.12999        -9.37258         0.11525
O         -1.31552         0.25180         1.55713
H         -1.26149         1.09629         2.07155
O         -2.13396         1.49129        -1.75965
H         -2.73411         2.14050        -2.18898
O         10.99891         1.25493        -1.47983
H         10.46518         1.45539        -2.27847
O         -4.60397         2.78181         1.49625
O          2.76859         2.32708         0.48688
O          2.59227        10.46504         1.97488
H          2.69681         9.63159         2.48857
O          0.87213         4.51097        -1.95815
O         -7.25101        -3.34589        -2.08770
O          3.82473         3.61030        -2.75262
H          4.58670         4.18478        -3.03058
O         -2.23962        -1.95489        -2.22696
O         -7.39920         5.81982        -1.87965
H         -7.47969         4.90260        -2.22147
O          3.60158        -3.61758         1.74307
H          4.14960        -2.88460         2.11462
O         -0.02009        -3.46981        -1.86065
H         -0.59615        -2.86767        -2.39911
O          7.37902        -1.12442         1.48892
O          1.95061        -8.12381         1.68536
H          1.27175        -7.94402         2.38182
O          6.15088         5.27751        -2.43292
H          5.49746         6.80507        -2.48321
O         -5.54300         6.42931         1.82668
O          1.10626        -2.89156         1.58403
H          1.80731        -3.31385         2.13912
O         -5.65608        -0.96183        -2.30960
O          5.00645        -1.71119         1.02062
O         -0.35843         5.18456         1.33751
O         -3.17986        -5.20909         2.12869
H         -2.68766        -4.39847         2.39836
O          5.13118         5.50726         1.04173
H          4.35139         5.90508         1.50335
O         -3.39342        -7.70662         2.06424
O          3.11201         5.97788        -1.94788
O        -10.23187         3.09413         1.70284
H         -9.38657         3.02843         2.19217
O         -3.63355        -2.89064         0.95018
O         -1.05002        -3.94801         1.59715
O         -9.83045         1.01115        -1.37916
O         -2.88709         6.47085        -0.99119
O         -0.45509        -7.39062         2.01203
O         -3.42037         7.70972         2.33289
O         -5.50580        -6.09307         1.22372
O         -3.11605        -5.54912        -1.51332
H         -3.55357        -5.02595        -2.23110
O          2.53054        -2.69698        -1.72499
O         -5.69434         7.92887        -1.49052
H         -6.13354         7.17368        -1.95138
O          8.87116        -0.15419        -1.66050
O          6.52527        -0.11067        -1.92607
O          1.91624        -5.57124         1.47969
O         -6.28197        -8.42079        -1.41600
H         -6.39700        -7.57342        -1.92609
O         -1.72790         3.85557        -1.74773
H         -0.94409         4.25729        -2.20538
O          2.62730         6.57828         1.59620
O         10.95655        -1.66088        -1.02472
H         11.08559        -0.78372        -1.46374
O          3.85628        -0.08361        -2.22845
O          9.52682        -2.53309         2.19566
H          8.68262        -1.98458         2.18697
O         -6.32936        -5.83968        -2.14976
O          6.41307        -7.89472        -1.73321
H          6.65029        -6.96513        -1.99127
O         -2.50482       -11.45755         0.43786
H         -2.84467       -11.40523        -0.48329
O         -3.43347         5.00175         2.29292
H         -3.46580         5.97677         2.56577
O         -7.85816        -3.88540         1.43265
H         -8.40286        -4.47282         1.99620
O          2.43438         7.65196         2.55156
H          1.51706         7.48160         2.88055
O          5.01835         7.57030        -2.03898
O          1.01065         0.10067        -1.97623
O          4.01626        -8.05607        -2.05079
H          3.50145        -7.28641        -2.45367
O         -0.37754        -5.98559        -1.31031
H         -0.44748        -5.09743        -1.76614
O         -2.00724         2.66714         1.72922
H         -2.38559         3.42815         2.23937
O          7.45664         1.51821         1.22550
H          6.62674         1.96433         1.49467
O          6.44266        -5.14616        -1.89479
H          7.22694        -4.60654        -2.13967
O          4.78556        -7.40649         1.52073
H          3.88398        -7.13325         1.80766
O          1.95482        -6.98217        -1.82282
H          1.00442        -6.65287        -1.85823
O          0.32798         2.30781         1.01014
O         -4.39690        -3.33565        -2.57262
H         -4.85906        -2.73014        -3.19805
O          3.41288        -9.19708        -2.63558
H          2.42896        -9.13199        -2.37699
O         -7.54846         2.33498        -1.87507
O         -2.60315        -0.87071        -3.11572
H         -2.09487        -0.08570        -2.76443
O         -3.72259        -9.58143        -1.07779
H         -4.60254        -9.31351        -1.45391
O          0.91520        -9.27437        -1.62726
H          0.34531       -10.02442        -1.90385
H         11.42289        -0.88784         1.90549
H         11.44553         1.53008         1.54188
H         10.88121         3.59090        -0.03145
H          9.62597         5.67300         0.00669
H          8.42648         7.75718         0.07414
H          7.18467         9.90288         0.36810
H          5.02724        11.09194         0.50606
H          2.52252        11.04633        -0.00166
H          0.00835        11.12039         0.58947
H         -2.51908        11.14903         0.30954
H         -5.03634        11.14046         0.84463
H         -7.10514         9.95701         0.32081
H         -7.85608         7.34503         1.08471
H         -9.58050         5.56428         0.31673
H        -10.87630         3.30799        -0.23706
H        -11.84206         1.06652         1.19223
H        -11.74066        -1.37781         1.21933
H        -10.63324        -3.44927         0.77848
H         -9.36746        -5.16800        -1.36591
H         -8.34748        -7.95910         1.05171
H         -7.19947        -9.91927         1.06640
H         -5.04803       -11.07008         1.32536
H         -2.70813       -10.20814         2.07911
H         -0.20261       -11.14234         0.21672
H          2.46472       -11.12065         0.39000
H          4.92986       -11.08399         0.48029
H          7.05642        -9.92733         0.32808
H          8.31854        -7.70754         0.59445
H          9.55172        -5.52281         0.84213
H         10.82309        -3.37381         0.81768
