         344
 CSIRO Nanostructure Databank - Neutral Graphene Oxide Data Set
C          1.18960         3.55594         0.89405
C          0.08784         4.22375         1.43776
C          1.52390         6.02697         2.15905
C          0.25246         5.45384         2.08413
C          1.55826         8.38276         2.08114
C          0.41690         9.21165         2.32804
C          1.13395        10.81197         0.59408
C          0.26721        10.42055         1.70936
C          1.16051        12.23359         0.13983
C         -0.03492        13.02252         0.24918
C          1.07997        15.00960        -0.62448
C         -0.06449        14.35411        -0.11172
C          1.10995        16.39664        -0.90962
C         -0.05325        17.18924        -0.87048
C          1.16003        19.30526        -1.09998
C         -0.03007        18.58390        -0.99251
C          1.17359        20.73813        -0.87473
C         -0.04784        21.52168        -0.95686
C          1.03911        23.46802         0.09578
C         -0.10481        22.82020        -0.57327
C          1.04487        24.96926         0.44307
C         -0.09037        25.78132        -0.14864
C          1.16039        27.83366         0.41882
C         -0.06727        27.12002        -0.10253
C          1.21927        29.30074         0.06033
C          3.66296         3.33882         0.46854
C          2.46829         4.11869         0.96558
C          3.94180         6.01324         1.50861
C          2.64955         5.37878         1.58830
C          3.90155         8.18853         1.24675
C          2.60245         8.80381         1.25950
C          3.58221        10.55363        -0.29932
C          2.37410         9.94067         0.34908
C          3.54538        12.03609        -0.63137
C          2.30031        12.79841        -0.38510
C          3.54984        14.97487        -0.43710
C          2.31382        14.19811        -0.94918
C          3.71851        16.30213        -1.21720
C          2.37815        17.05179        -1.32599
C          3.76357        19.30259        -1.34407
C          2.40887        18.57203        -1.39075
C          3.62592        20.57889        -0.42839
C          2.36943        21.38021        -0.60018
C          3.63641        23.47809         0.13830
C          2.35867        22.73578        -0.01678
C          3.59080        24.93473         0.19848
C          2.39587        25.62543         0.16876
C          3.66760        27.81456         0.05966
C          2.37290        27.09413        -0.18651
C          3.67394        29.22684         0.03647
C          2.39878        29.93641        -0.07185
C          6.09264         3.49374        -0.04250
C          4.94491         4.13945         0.34415
C          6.17888         6.32695         0.43712
C          5.00122         5.52962         0.74130
C          6.17324         7.75828         0.30403
C          4.96220         8.56501         0.42796
C          6.05553        10.58861        -0.48879
C          4.90527         9.90480        -0.14348
C          6.05278        12.04263        -0.60824
C          4.83036        12.76959        -0.61100
C          6.04681        14.87900        -0.34744
C          4.83929        14.17549        -0.49368
C          5.99995        16.34948         0.00939
C          4.85206        17.12269        -0.62220
C          6.07709        19.21972        -0.23275
C          4.89229        18.47748        -0.70404
C          6.08107        20.58370        -0.09798
C          4.90838        21.42149        -0.55334
C          6.09562        23.50256         0.19446
C          4.83173        22.80012         0.08204
C          6.08155        24.95067         0.16872
C          4.86317        25.65128         0.14241
C          6.11753        27.79325         0.12754
C          4.87305        27.08560         0.12379
C          6.12369        29.23720         0.15362
C          4.89263        29.92316         0.11223
C          8.54311         3.49973        -0.35991
C          7.34342         4.18934        -0.09278
C          8.59314         6.30187        -0.10092
C          7.36223         5.60944         0.07770
C          8.58735         7.72978        -0.15986
C          7.35449         8.41823        -0.12243
C          8.60114        10.56982        -0.63672
C          7.30510         9.78057        -0.78777
C          8.56784        12.05390        -0.52510
C          7.26639        12.77075        -0.49900
C          8.55177        14.89480        -0.22072
C          7.27706        14.17376        -0.34345
C          8.54510        16.33699        -0.20956
C          7.31871        17.05753        -0.16383
C          8.55067        19.14640         0.07422
C          7.31741        18.45501        -0.06139
C          8.54353        20.56737         0.46377
C          7.21288        21.30324         0.59509
C          8.55551        23.47562         0.15571
C          7.28671        22.78910         0.26654
C          8.57044        24.93347         0.11098
C          7.32371        25.66248         0.14736
C          8.62627        27.80140        -0.11410
C          7.32422        27.07157         0.11152
C          8.59088        29.27196         0.24454
C          7.36146        29.93643         0.26537
C         11.00954         3.38384        -0.77048
C          9.76368         4.17126        -0.44486
C         11.05219         6.29680        -0.39332
C          9.80108         5.58064        -0.32082
C         11.06139         7.71094        -0.26353
C          9.83741         8.43756        -0.23498
C         11.03208        10.59202        -0.07871
C          9.84943         9.86423        -0.25102
C         11.05046        12.01435        -0.05917
C          9.73730        12.72874         0.16118
C         11.01809        14.89544        -0.12684
C          9.76400        14.20965        -0.11792
C         11.02468        16.31476        -0.24694
C          9.77992        17.04407        -0.23462
C         11.00794        19.22141        -0.23790
C          9.77537        18.47268        -0.11340
C         11.03731        20.60152        -0.13680
C          9.83169        21.33720         0.29220
C         10.97424        23.51814        -0.42890
C          9.75898        22.78950         0.08114
C         11.03199        24.94451         0.08230
C          9.78729        25.62191         0.19341
C         11.07964        27.78993         0.30290
C          9.77500        27.08236         0.58084
C         11.06413        29.23758         0.32016
C          9.82567        29.93086         0.38426
C         13.49717         3.47919        -0.59776
C         12.29610         4.15777        -0.60066
C         13.51764         6.30517        -0.50422
C         12.27867         5.58734        -0.50166
C         13.51273         7.74280        -0.36170
C         12.31181         8.41847        -0.21236
C         13.55371        10.61704        -0.08024
C         12.29963         9.85233         0.25371
C         13.52930        12.02147        -0.09993
C         12.26264        12.73006        -0.05003
C         13.49149        14.88325        -0.11639
C         12.26053        14.17396        -0.08172
C         13.48094        16.31139        -0.19122
C         12.26287        17.00450        -0.29170
C         13.46142        19.19286        -0.03274
C         12.26180        18.47442        -0.64905
C         13.55763        20.64999        -0.53930
C         12.25642        21.38419        -0.29908
C         13.53440        23.56111        -0.57459
C         12.26685        22.74895        -0.30525
C         13.52393        24.84767         0.27201
C         12.24095        25.63574         0.15134
C         13.51426        27.80589        -0.23278
C         12.25528        27.07447         0.17703
C         13.52876        29.25474         0.20976
C         12.29651        29.93033         0.34615
C         15.97562         3.48184        -0.49627
C         14.74521         4.17827        -0.56679
C         16.01341         6.33842        -0.84042
C         14.73143         5.60109        -0.57672
C         15.99304         7.78272        -0.41656
C         14.78500         8.46840        -0.29869
C         16.01469        10.60953        -0.19488
C         14.78074         9.89910        -0.16967
C         16.01420        12.04342        -0.17619
C         14.76481        12.75626        -0.15235
C         15.99301        14.89288        -0.12629
C         14.75190        14.17346        -0.13319
C         16.00494        16.31291        -0.10886
C         14.74754        17.04432        -0.17215
C         16.02441        19.16140        -0.14991
C         14.75141        18.41955        -0.17432
C         16.01745        20.64862        -0.06411
C         14.71838        21.38674         0.14556
C         16.01270        23.48199        -0.09481
C         14.82532        22.82588        -0.26911
C         16.04087        24.94515         0.01641
C         14.78813        25.65363         0.10649
C         15.98621        27.77409         0.22818
C         14.78460        27.05868         0.10059
C         15.99757        29.21082         0.24238
C         14.74987        29.91570         0.29926
C         18.42835         3.46131        -0.10686
C         17.20578         4.17136        -0.33943
C         18.44390         6.29151        -0.20076
C         17.23697         5.58993        -0.38626
C         18.46741         7.73341        -0.21983
C         17.23776         8.46897        -0.29052
C         18.49231        10.59283        -0.15275
C         17.24606         9.88909        -0.19771
C         18.49601        12.02141        -0.16671
C         17.24486        12.74397        -0.18213
C         18.46290        14.88832        -0.06563
C         17.24371        14.18074        -0.14172
C         18.46848        16.29185         0.13374
C         17.23447        17.00869         0.05077
C         18.43896        19.12353         0.46467
C         17.27099        18.43600         0.16344
C         18.41040        20.58999         0.86213
C         17.24243        21.36631         0.33166
C         18.49561        23.45453         0.32427
C         17.25864        22.74958         0.21252
C         18.53295        24.89348        -0.13561
C         17.24117        25.61065         0.14575
C         18.51231        27.78570         0.24445
C         17.25080        27.04072         0.59729
C         18.47301        29.20271         0.16458
C         17.22094        29.89602         0.24545
C         19.61283         4.13619         0.05730
C         20.86813         6.27713         0.16528
C         19.65525         5.56261         0.01586
C         20.89050         7.65847         0.10091
C         19.70198         8.41500        -0.08471
C         20.92928        10.58878        -0.15170
C         19.72088         9.86753        -0.12321
C         20.92902        11.97950        -0.20342
C         19.73372        12.70772        -0.18853
C         20.90550        14.87243         0.41528
C         19.78052        14.20781        -0.33908
C         20.86824        16.19713         0.68481
C         19.68345        16.99263         0.43327
C         20.87283        19.15578         0.80359
C         19.67730        18.40645         0.60149
C         20.89050        20.55342         0.78973
C         19.72107        21.31768         0.70067
C         20.91106        23.51916         0.67366
C         19.71482        22.75731         0.56875
C         20.91238        24.92104         0.59689
C         19.76580        25.64835         0.29377
C         20.94212        27.84638         0.04796
C         19.74843        27.09777         0.19754
C         20.90099        29.23771        -0.04858
C         19.68704        29.91768         0.00871
O          9.38288        20.86588         1.63410
O          1.19861         9.82285        -0.49332
O          1.54737        22.69701         1.24755
O          1.67234         7.23236         2.88378
O          4.12135        19.61177        -2.65368
O          3.38489        11.01201        -1.66937
O          2.25266        17.74190        -2.59673
O         16.19219        20.01566        -1.37631
O          8.85626        11.44025        -1.82067
O          4.13840         7.20023         2.22785
O          4.14109        15.98438        -2.57045
H          3.91018        16.77864        -3.11377
O         16.12774         6.38905        -2.32157
H         16.16382         5.45997        -2.63548
O         14.49566        21.46170         1.59058
H         14.04322        22.31901         1.78610
O          9.52030        27.15570         2.01393
H         10.22592        26.65373         2.47185
O          2.16164        27.14379        -1.64181
H          2.94416        26.73609        -2.06986
O          5.15239        21.78867        -1.93263
H          4.89178        20.99391        -2.50310
O          8.89777        27.73446        -1.54494
H          8.13764        28.13647        -2.01482
O         11.04544         2.16038        -0.02156
H         11.09417         2.38716         0.92945
O          1.19702        27.76756         1.85770
H          1.03474        26.82613         2.12120
O         13.55984        24.32482         1.65575
H         13.76614        25.07212         2.25718
O          3.53668        20.03777         0.91501
H          3.28828        20.76256         1.52825
O          3.25517        15.28395         0.94140
H          4.05376        15.71960         1.34109
O         12.35547        18.51767        -2.10699
H         11.57722        18.04812        -2.47500
O         13.52565        23.91655        -1.97930
H         13.75098        23.09991        -2.47921
O         13.81523        20.73280        -1.95535
H         13.32336        19.99931        -2.39797
O         13.47758        27.84653        -1.69945
H         12.62791        28.26144        -1.96025
O         10.76612        23.67138        -1.87930
H         11.61275        24.03642        -2.23932
O          5.72564        16.37124         1.46990
H          6.48716        15.94789         1.92152
O          7.19095         9.45308        -2.20910
H          7.55964        10.22423        -2.70030
O          0.85434        25.04959         1.89368
H          1.28364        24.24211         2.26973
O         18.17401        20.54383         2.33686
H         18.22764        21.46672         2.66677
O          3.36211         2.69485        -0.77888
H          3.26959         3.38511        -1.46699
O          9.44378        12.59232         1.59620
H         10.24410        12.86553         2.09287
O         13.16201        19.20012         1.38557
H         13.70366        19.90629         1.81962
O         18.63575        24.82521        -1.61515
H         19.44157        24.30690        -1.82660
O         20.06353        14.44267        -1.76961
H         20.05067        15.41351        -1.91072
O          2.37003        14.02627        -2.38462
H          3.01500        14.67742        -2.76539
O         12.30442         9.76318         1.73749
H         13.11798         9.27780         1.99379
O         17.23649        26.98978         2.09397
H         17.28551        27.92014         2.40415
O          6.85545        21.25850         2.01498
H          7.70742        21.28564         2.51108
H          1.06098         2.58133         0.40409
H         -0.91085         3.77016         1.37682
H         -0.60696         5.96941         2.53199
H         -0.27425         8.91026         3.12714
H         -0.50317        11.12062         2.06292
H         -0.95081        12.55304         0.63372
H         -0.99937        14.91353         0.03394
H         -1.02540        16.71113        -0.68865
H         -0.97967        19.12197        -0.86326
H         -0.93488        21.06486        -1.41794
H         -1.02727        23.38928        -0.75072
H         -0.98860        25.26714        -0.51953
H         -0.92392        27.70530        -0.47243
H          0.27510        29.86459         0.00548
H          3.84538         2.50577         1.20491
H          2.43235        31.02102        -0.25791
H          6.06373         2.42186        -0.28563
H          4.88878        31.02338         0.12510
H          8.52089         2.40837        -0.49267
H          7.33848        31.02834         0.40724
H         10.94089         3.07779        -1.85379
H          9.84009        31.02508         0.50911
H         13.49835         2.37998        -0.63535
H         12.29622        31.02098         0.49764
H         15.96928         2.38239        -0.46987
H         14.76808        31.00427         0.46480
H         18.40397         2.36253        -0.06950
H         17.22375        30.99569         0.23645
H         20.54859         3.58240         0.22272
H         21.80246         5.72058         0.32872
H         21.85291         8.17366         0.22122
H         21.89246        10.06207        -0.16572
H         21.89066        12.50583        -0.27310
H         21.81475        14.29895         0.64566
H         21.73810        16.67419         1.15883
H         21.83462        18.63026         0.87573
H         21.87070        21.05174         0.81457
H         21.85888        23.01306         0.90011
H         21.85170        25.44901         0.81764
H         21.90979        27.32991        -0.01393
H         21.83688        29.80066        -0.17215
H         19.66143        31.01431        -0.06276
