         282
 CSIRO Nanostructure Databank - Neutral Graphene Oxide Data Set
C        -11.05774         0.70616         0.71740
C         -9.99880         1.44928        -0.01519
C         -8.82778         0.64640        -0.50152
C         -7.56852         1.31597        -0.98806
C         -6.26935         0.63319        -0.66060
C         -4.95181         1.37354        -0.80348
C         -3.70260         0.64097        -1.22147
C         -2.50402         1.45488        -1.68615
C         -1.19556         0.69466        -2.05008
C          0.11324         1.43365        -1.61190
C          1.29465         0.64685        -1.14838
C          2.61283         1.42187        -1.16956
C          3.82705         0.83197        -0.37457
C          5.13235         1.35938        -0.99061
C          6.37043         0.58554        -0.63641
C          7.63482         1.35810        -0.43567
C          8.66625         0.85727         0.58551
C         10.07817         1.34296         0.11800
C         11.18229         0.66237         0.89167
C         -9.91222         2.92820         0.12515
C         -8.75073         3.63747         0.02663
C         -7.40351         2.94691         0.03182
C         -6.28166         3.64532        -0.74944
C         -5.02301         2.87213        -0.98113
C         -3.72430         3.57056        -0.73908
C         -2.49220         2.93004        -1.35309
C         -1.17389         3.57070        -0.96283
C          0.12710         2.93616        -1.35675
C          1.40498         3.75315        -1.05841
C          2.50854         2.82540        -0.54390
C          3.86291         3.58111        -0.62713
C          5.13578         2.87400        -1.03824
C          6.45752         3.67995        -1.08525
C          7.68204         2.84240        -0.66185
C          8.90945         3.55104        -0.16965
C         10.03030         2.86264         0.15300
C         -8.67070         5.07807         0.18724
C         -7.49527         5.78120         0.03591
C         -6.30100         5.18280        -0.68106
C         -4.98188         5.82094        -0.28999
C         -3.73151         5.01694        -0.35198
C         -2.44305         5.78142        -0.59748
C         -1.19707         4.92920        -0.31226
C          0.03890         5.66165         0.22616
C          1.33701         4.90910        -0.05612
C          2.64091         5.63282         0.05789
C          3.89001         4.94399        -0.42229
C          5.14446         5.69931        -0.39145
C          6.36293         5.05648        -0.45343
C          7.60157         5.75443        -0.12624
C          8.92618         5.05131        -0.36051
C         -7.40653         7.20381         0.26314
C         -6.20978         7.89072         0.15989
C         -4.95733         7.16395        -0.03447
C         -3.66731         7.97164        -0.13634
C         -2.44010         7.11106         0.21183
C         -1.15423         7.90996        -0.02460
C          0.12352         7.14396        -0.06904
C          1.40952         7.80640         0.26788
C          2.57595         7.09212         0.28156
C          3.84707         7.84879         0.25961
C          5.10497         7.18118        -0.18628
C          6.42120         7.95511        -0.08787
C          7.59590         7.06642         0.23668
C         -6.13670         9.33992         0.30629
C         -4.97141        10.00775         0.46234
C         -3.66220         9.27826         0.69190
C         -2.41566        10.14829         0.36872
C         -1.10616         9.35446         0.32702
C          0.10327         9.95366         0.51228
C          1.39437         9.25567         0.51166
C          2.56346         9.89861         0.82883
C          3.82738         9.10085         1.10327
C          5.14873         9.82841         1.07233
C          6.30055         9.23711         0.71606
C        -11.00537        -0.62122         0.91088
C         -9.78661        -1.47659         0.64888
C         -8.74466        -0.82037        -0.24063
C         -7.66085        -1.53684        -0.66802
C         -6.32306        -0.86336        -0.75396
C         -5.11346        -1.56136        -1.31713
C         -3.81945        -0.83513        -1.59034
C         -2.51933        -1.62852        -1.73102
C         -1.22605        -0.83929        -1.75999
C          0.05764        -1.54468        -1.30980
C          1.24929        -0.70441        -0.96446
C          2.37343        -1.37592        -0.24138
C          3.69278        -0.65757        -0.07351
C          4.94133        -1.44135         0.14522
C          6.27384        -0.78747        -0.07106
C          7.31685        -1.42642         0.83770
C          8.66820        -0.65741         1.04911
C          9.92025        -1.42949         0.69277
C         11.15038        -0.68554         0.97525
C        -10.10697        -2.91408         0.19188
C         -8.82857        -3.72018         0.04261
C         -7.67407        -3.02056        -0.60866
C         -6.38655        -3.76362        -0.79584
C         -5.11327        -3.07154        -1.23879
C         -3.82469        -3.83765        -1.27534
C         -2.44505        -3.20122        -1.50505
C         -1.39890        -3.53248        -0.41372
C         -0.01675        -2.97740        -0.82229
C          1.19716        -3.67755        -0.30418
C          2.39170        -2.85929         0.03155
C          3.69818        -3.56094         0.22661
C          4.90487        -2.91989         0.18348
C          6.19915        -3.60445         0.29046
C          7.42002        -2.88412         0.43269
C          8.66949        -3.56884         0.43885
C          9.89507        -2.79385         0.52586
C         -8.78121        -5.04753         0.28886
C         -7.58230        -5.89554        -0.10654
C         -6.29683        -5.02828         0.06089
C         -5.05017        -5.86914        -0.18470
C         -3.81919        -5.27300        -0.79172
C         -2.44520        -5.92994        -0.68336
C         -1.36076        -5.07151         0.02963
C         -0.02370        -5.82148        -0.17079
C          1.21100        -5.04606        -0.23716
C          2.54571        -5.76048        -0.20654
C          3.59960        -5.00628         0.64045
C          4.95950        -5.71822         0.64845
C          6.21497        -5.00129         0.34558
C          7.46490        -5.72836         0.33800
C          8.67938        -4.96749         0.34207
C         -7.46411        -7.23725         0.58937
C         -6.27200        -7.83886         0.82209
C         -4.97542        -7.04526         0.80642
C         -3.76801        -7.92292         0.50488
C         -2.53298        -7.30900        -0.03233
C         -1.23477        -7.90655         0.46174
C         -0.01440        -7.19360        -0.06900
C          1.23787        -8.03369        -0.26491
C          2.44150        -7.22136         0.18880
C          3.69920        -7.95020         0.49204
C          4.99902        -7.20886         0.56566
C          6.23084        -7.93754         0.04840
C          7.47684        -7.12862         0.29503
C         -6.16298        -9.25600         1.16668
C         -4.98824        -9.89714         1.34567
C         -3.66460        -9.14404         1.41517
C         -2.42382        -9.96126         1.14031
C         -1.26172        -9.45561         0.30319
C          0.04032       -10.02144         0.78528
C          1.24218        -9.38397         0.47709
C          2.46400       -10.03457         0.71604
C          3.75061        -9.44832         0.20200
C          5.04512       -10.01523         0.74794
C          6.19685        -9.33109         0.65422
O         -3.58808         8.38515        -1.52153
H         -3.42257         7.57380        -2.06627
O         -3.65151         3.97554         0.66231
O         -9.92830         0.97990        -1.43632
O         -1.19735        -7.65777         1.90476
H         -0.34912        -8.00336         2.25900
O          0.31684         2.42851        -2.69842
O          2.09636         4.84949         1.18905
O          8.06731         1.89053        -1.72906
O         -3.98029         0.92493         0.18154
O          1.95323        -1.89447         1.06603
O          2.78513        -7.54831         1.56076
O          5.08968         2.03597        -2.25444
O          0.31411        -2.67066        -2.21808
O          5.19315        -6.56374         1.84992
O          1.36073        -8.33365        -1.67904
H          0.54252        -8.81664        -1.94140
O          9.24771         5.28608        -1.74735
H          8.49234         4.94079        -2.28202
O         -4.63252        -3.67762        -2.47896
O          4.00394         1.44370         0.93343
H          3.52199         0.91546         1.60766
O         -7.75387        -6.27643        -1.48997
H         -7.74642        -5.45422        -2.03755
O         -5.87861         3.23956        -2.08928
O         -0.48588         7.59698        -1.32056
O          6.62061        -0.61721        -1.46907
O         -1.27202         3.71428         0.49784
O          1.75890         4.42177        -2.28190
H          1.71745         3.77094        -3.01777
O         -2.76075         2.48912        -2.70151
O         -4.74343        -6.13048        -1.55998
O         -7.34707        -3.69639        -1.89382
O         -3.38842        -8.19765        -0.85757
O         -7.05619         2.49550         1.18742
O         -7.67085         1.65387        -2.29798
H         -8.63669         1.72807        -2.51328
O          8.92909        -0.65630         2.44919
O         -3.59616         9.01667         2.10611
H         -4.13878         8.22651         2.31121
O          3.68460         8.60715         2.47749
H          3.63012         9.38335         3.07338
O         -4.74002        -6.51972         2.10178
O         -9.13996        -1.63952         1.94175
H         -8.74034        -0.78574         2.21202
O         -1.65105        -5.05158         1.43513
O          4.24925         7.92449        -1.15075
O         -2.56806         6.76215         1.59439
H         -1.74103         6.29396         1.88598
O          3.06202        -5.84063        -1.60638
O         -1.82112        -1.40635        -2.96455
O         10.36191         0.90037        -1.23075
H          9.74719         1.37226        -1.84383
O         -4.78175        -1.06879        -2.65680
O          2.88568         1.41354        -2.57792
H          2.05628         1.63896        -3.05699
O         -1.79842        -2.72952         0.71057
H         -1.68828        -3.27708         1.52755
O         -0.14400         5.64751         1.67147
H         -0.16521         4.70495         1.95403
O          4.20821        -0.90272         1.27790
O          6.69356        -1.53883         2.13361
H          7.42116        -1.30725         2.78477
O          3.01904        -5.00312         2.00270
O         -6.20436        -0.16090         0.54287
O          6.13889        -8.08161        -1.39430
H          6.18148        -7.19383        -1.80718
O          6.69999         4.01474        -2.48216
H          6.58093         3.17525        -2.98687
O         -6.23306        -4.52249         1.40342
H         -5.76510        -5.20230         1.97710
O         -1.13150         0.72349        -3.48637
H         -1.43179         1.61026        -3.78699
O        -10.79998        -2.89420        -1.05907
H        -10.15978        -2.70338        -1.77530
O         -3.50476        -8.69550         2.77048
H         -4.00093        -7.80828         2.82961
O         -2.59226        10.82368        -0.87850
H         -2.82753        10.14152        -1.55012
H         -1.48408        -5.94708         1.83524
O          3.77312        -9.65136        -1.23435
H          2.94931        -9.25585        -1.61965
O          1.96459         2.46867         0.76671
H          2.32729         3.08334         1.44645
O          3.14324        -4.49677        -2.13474
H          2.32516        -4.42008        -2.68868
O         -1.97750        -3.77492        -2.71620
H         -2.63280        -3.57532        -3.41854
O          8.30985         1.60493         1.76843
H          8.56757         1.00969         2.52924
O          6.74524         8.43255        -1.43029
H          5.88431         8.60742        -1.87738
O         -1.97366        -6.18790        -2.01675
H         -2.72913        -6.56856        -2.51635
O         -6.50581         5.60688        -2.06593
H         -6.57091         6.58568        -2.07339
O         -2.43194         6.04110        -2.02278
H         -1.60473         6.55719        -2.21850
O          3.95737        -4.33733         2.87368
H          4.52655        -5.08421         3.18839
O         -1.35236        -9.80003        -1.10693
H         -2.23860        -9.49783        -1.42480
H         12.01784        -1.24870         1.35515
H         12.08263         1.22780         1.17664
H         10.94697         3.41806         0.41148
H          9.73271         5.52017         0.25548
H          8.55074         7.56407         0.46891
H          7.23814         9.80709         0.81895
H          5.17622        10.82715         1.53936
H          2.55302        10.97610         1.05843
H          0.12941        11.03084         0.74189
H         -2.33031        10.93701         1.15902
H         -4.98010        11.10367         0.56173
H         -7.08641         9.89613         0.26818
H         -8.31950         7.74800         0.55022
H         -9.58328         5.61368         0.49656
H        -10.86462         3.46193         0.27695
H        -11.94355         1.27687         1.03621
H        -11.83973        -1.12050         1.42716
H        -10.78208        -3.39310         0.94241
H         -9.67255        -5.55336         0.69354
H         -8.39014        -7.83162         0.66198
H         -7.10200        -9.83109         1.21014
H         -4.98134       -10.97216         1.57924
H         -2.13764       -10.61268         1.98732
H          0.06355       -11.02992         1.22718
H          2.45352       -11.03189         1.18368
H          5.03645       -11.02689         1.18216
H          7.13748        -9.76701         1.02383
H          8.44787        -7.64675         0.25009
H          9.63830        -5.50452         0.31168
H         10.84505        -3.34366         0.43783
