         344
 CSIRO Nanostructure Databank - Neutral Graphene Oxide Data Set
C          1.20133         2.11828         0.57882
C          1.20227         3.54409         0.66333
C          2.35184         1.38920         0.46627
C          2.36960         4.28866         0.60513
C          1.20057         6.48362         0.48824
C          1.20940         7.86512         0.38037
C          2.39144         5.73256         0.42668
C          2.41284         8.58112         0.18614
C          1.25611        10.78047         0.36431
C          1.27964        12.16291         0.37787
C          2.42570        10.02976         0.11198
C          2.45610        12.87715         0.05759
C          1.39852        15.07016         0.69586
C          1.44206        16.44455         0.83452
C          2.50110        14.34199         0.16942
C          2.61106        17.16522         0.49473
C          2.67950        18.59185         0.61145
C          3.65572         2.02229         0.64938
C          3.65725         3.59383         0.72558
C          4.88004         1.37488         0.19226
C          4.88800         4.27599         0.30208
C          3.62804         6.42532         0.20775
C          3.63016         7.85598         0.07486
C          4.85531         5.70432         0.09467
C          4.85805         8.56974        -0.14839
C          3.62944        10.72541        -0.20272
C          3.60572        12.14577        -0.30854
C          4.86613         9.98457        -0.32905
C          4.79749        12.84958        -0.83942
C          3.66743        15.04096        -0.17226
C          3.73885        16.44818         0.00612
C          4.78192        14.37305        -0.94549
C          4.95215        17.15500        -0.29723
C          3.82608        19.26963         0.28986
C          5.00480        18.57570        -0.14254
C          6.06804         2.08803         0.05660
C          6.04732         3.53683         0.10956
C          7.30269         1.39986        -0.23412
C          7.27148         4.22298        -0.42838
C          6.07728         6.41895        -0.13582
C          6.08389         7.84685        -0.22246
C          7.30485         5.71667        -0.19265
C          7.31402         8.53347        -0.45118
C          6.10732        10.65930        -0.53579
C          6.10244        12.10005        -0.87927
C          7.32283         9.96230        -0.57721
C          7.38377        12.84725        -0.82422
C          6.13299        15.02732        -0.71042
C          6.13321        16.42034        -0.60525
C          7.37009        14.28143        -0.78661
C          7.37936        17.16303        -1.00666
C          6.21867        19.28176        -0.31765
C          7.41991        18.62759        -0.63474
C          8.54329         2.04685        -0.23612
C          8.54080         3.52453         0.08141
C          9.78454         1.38781        -0.28547
C          9.79815         4.25828        -0.43944
C          8.52216         6.42101        -0.28936
C          8.52931         7.80555        -0.51149
C          9.81386         5.71426         0.05315
C          9.77250         8.48308        -1.03996
C          8.59676        10.66974        -0.71382
C          8.58937        12.13638        -0.74630
C          9.78489         9.97407        -0.77673
C          9.83859        12.84142        -0.67072
C          8.60801        14.96587        -0.68096
C          8.62903        16.46317        -0.46681
C          9.82842        14.26910        -0.60982
C          9.90457        17.11563        -1.02809
C          8.65552        19.28676        -0.63110
C          9.90184        18.60479        -0.73727
C         11.03505         2.08304        -0.15659
C         11.07044         3.50892        -0.14552
C         12.26145         1.38253         0.00182
C         12.28756         4.19970        -0.15531
C         11.06157         6.43914        -0.36942
C         11.06001         7.76107        -0.68682
C         12.34366         5.71443        -0.00465
C         12.32484         8.51254        -0.62899
C         11.09122        10.69008        -1.04641
C         11.07619        12.13974        -0.63560
C         12.31582         9.94427        -0.57638
C         12.28586        12.81810        -0.39888
C         11.08054        14.98472        -0.44200
C         11.12139        16.40054        -0.49588
C         12.28367        14.25465        -0.25389
C         12.32177        17.09763        -0.29998
C         11.10568        19.26718        -0.57208
C         12.35382        18.56980        -0.37548
C         13.48083         2.05942         0.00383
C         13.49438         3.46462        -0.16869
C         14.77599         1.31998         0.32084
C         14.77140         4.16837        -0.41563
C         13.52994         6.33160        -0.74596
C         13.51600         7.81601        -0.48251
C         14.80782         5.65043        -0.31009
C         14.70970         8.45249         0.15700
C         13.51497        10.65246        -0.32336
C         13.52885        12.09209        -0.30439
C         14.72561         9.94696        -0.02381
C         14.75502        12.77845        -0.11949
C         13.49995        14.96582        -0.05687
C         13.50839        16.37241        -0.05011
C         14.76132        14.23407         0.00273
C         14.82059        17.12582        -0.08926
C         13.51785        19.26093        -0.14168
C         14.72301        18.56223         0.43667
C         16.00289         1.86099        -0.46656
C         16.05161         3.40111        -0.48529
C         17.29681         1.24909        -0.00381
C         17.28556         4.12020        -0.07829
C         15.97088         6.30345        -0.11199
C         16.03058         7.79875        -0.31277
C         17.16580         5.54906         0.41806
C         17.24574         8.44583         0.31094
C         15.92099        10.62995         0.17606
C         15.96109        12.04913         0.06640
C         17.14157         9.88905         0.59055
C         17.23143        12.73881         0.17147
C         15.94302        14.91391         0.15667
C         15.97772        16.36517         0.56759
C         17.20843        14.20283        -0.06482
C         17.28960        17.09693         0.30101
C         16.04683        19.25318         0.23683
C         17.25513        18.56882         0.23712
C         18.47317         1.96211         0.13087
C         18.45709         3.43129         0.14266
C         19.71476         1.29406         0.35045
C         19.68496         4.15511         0.42033
C         18.46832         6.31432         0.36494
C         18.43655         7.76880         0.48513
C         19.64193         5.60352         0.48463
C         19.70366         8.49738         0.70822
C         18.43127        10.66104         0.78798
C         18.40676        12.10304         0.48829
C         19.71640         9.94076         0.74437
C         19.64952        12.90504         0.81892
C         18.47991        14.97038        -0.13120
C         18.47287        16.43061         0.18944
C         19.76596        14.13497        -0.09198
C         19.78486        17.16611         0.41209
C         18.48314        19.27141         0.01435
C         19.74139        18.62866         0.01457
C         20.92360         2.00195         0.47542
C         20.89988         3.45405         0.51303
C         22.16653         1.33020         0.51514
C         22.16067         4.14720         0.56919
C         20.90420         6.30278         0.92378
C         20.89758         7.79770         0.76155
C         22.12721         5.61798         0.35617
C         22.23180         8.48444         0.95216
C         20.93384        10.67192         0.77240
C         20.94893        12.11141         0.75822
C         22.18602         9.98452         0.76905
C         22.16353        12.79457         0.72334
C         20.94499        14.99685         0.30698
C         20.93754        16.38986        -0.28900
C         22.19419        14.27399         0.66010
C         22.28329        17.10334        -0.17030
C         20.94432        19.30480        -0.14091
C         22.25523        18.61667        -0.12991
C         23.39933         2.02757         0.52944
C         23.36539         3.47765         0.55409
C         24.62202         1.34375         0.39956
C         24.63698         4.23857         0.62793
C         23.37546         6.37851         0.06485
C         23.33129         7.90841         0.02830
C         24.67351         5.68573         0.27740
C         24.65993         8.56586         0.33919
C         23.40316        10.67488         0.68288
C         23.42127        12.10567         0.70567
C         24.66341         9.96004         0.54126
C         24.65389        12.82095         0.75414
C         23.47659        14.98573         0.53978
C         23.48476        16.39706         0.33441
C         24.65032        14.25733         0.75860
C         24.67770        17.13887         0.48781
C         23.47048        19.28256         0.36261
C         24.63787        18.59138         0.53355
C         25.88434         2.01029         0.34008
C         25.93139         3.47092         0.61638
C         27.04453         1.36379        -0.01506
C         27.16315         4.21592         0.26758
C         25.85053         6.38457         0.26633
C         25.86442         7.84685         0.23039
C         27.17034         5.69962         0.57107
C         27.09862         8.54839         0.19421
C         25.89144        10.67716         0.50770
C         25.90785        12.10653         0.65358
C         27.10926         9.96963         0.26904
C         27.14345        12.78826         0.55765
C         25.88866        15.00826         0.96350
C         25.90782        16.45416         0.74226
C         27.22472        14.22604         0.85204
C         27.14924        17.13103         0.71075
C         25.87971        19.31504         1.01478
C         27.16028        18.57020         0.71219
C         28.38488         2.04507         0.06148
C         28.29393         3.55114        -0.10470
C         29.42867         1.42280        -0.82720
C         29.48235         4.28097        -0.51874
C         28.34968         6.42888        -0.02574
C         28.33007         7.82759        -0.05900
C         29.50324         5.71000        -0.45536
C         29.52299         8.55919        -0.37959
C         28.33142        10.69173         0.06935
C         28.34254        12.10796         0.19450
C         29.53046         9.98794        -0.28522
C         29.56036        12.84766        -0.03235
C         28.40887        14.99181         0.47289
C         28.38273        16.40625         0.52423
C         29.58334        14.28219         0.07428
C         29.58929        17.13848         0.26355
C         28.34030        19.25401         0.54970
C         29.57557        18.56498         0.30584
C         30.46939         2.14245        -1.28812
C         30.56849         3.58048        -1.07272
C         31.71404         4.29877        -1.49300
C         30.67170         6.41805        -0.87062
C         30.69831         7.85797        -0.76253
C         31.77291         5.67532        -1.37190
C         31.87308         8.61059        -1.03283
C         30.72779        10.71099        -0.53629
C         30.74185        12.15285        -0.40411
C         31.88859         9.98374        -0.91387
C         31.92554        12.90188        -0.64150
C         30.78587        15.00452        -0.16939
C         30.79904        16.45062        -0.04847
C         31.94811        14.27610        -0.52456
C         31.97161        17.20897        -0.26045
C         30.76885        19.28163         0.09000
C         31.95499        18.60096        -0.18020
O         26.64825        14.59036         2.14510
O         15.42374         3.86749        -1.74328
O         21.33275        14.93806         1.69901
O         25.35257         3.90682         1.90010
O         22.55304        17.86309        -1.39985
O          3.79725         2.76405         1.90813
O         17.75412        14.66716        -1.38136
O         22.51695         5.87156        -1.03993
O         17.59100        10.26841         1.94454
O          5.29378        12.29211        -2.11432
O         11.21537        10.70032        -2.53713
H         10.59983        11.38894        -2.87137
O         19.42541        13.36395         2.17623
H         19.24087        12.58155         2.73738
O         20.59996        16.26933        -1.68399
H         21.12104        16.96778        -2.15376
O         22.69658         8.21270         2.30715
H         22.01644         8.53302         2.93511
O         15.84349        16.30939         2.01173
H         15.46335        17.16897         2.32013
O          7.15849         4.06017        -1.87036
H          7.98267         4.43653        -2.26941
O          9.74261         4.34501        -1.89295
H         10.05310         3.49141        -2.26226
O         14.65126        -0.06876         0.03571
H         14.88337        -0.16842        -0.91629
O          9.97917        16.93429        -2.46284
H          9.10361        17.19896        -2.83975
O         25.78136        19.49435         2.44473
H         25.80163        18.60797         2.86182
O         15.15065        17.26418        -1.49510
H         15.33190        16.37066        -1.85733
O         27.34203         5.79201         2.02553
H         26.61277         5.25135         2.41919
O          7.35801        17.12519        -2.47290
H          6.80477        16.36478        -2.75493
O          8.61330        16.68070         0.96864
H          9.41017        16.25214         1.34696
O          9.66105         8.38099        -2.50417
H         10.34362         8.99399        -2.87448
O         23.04133         8.32233        -1.32352
H         22.62233         7.55265        -1.77761
O         20.03910        13.61277        -1.40344
H         19.97431        14.36662        -2.03401
O         28.86102         1.83269         1.43966
H         28.24767         2.31145         2.03769
O         14.55539         8.17980         1.58357
H         13.98572         7.37724         1.68938
O          4.47888        14.69079        -2.34698
H          4.79994        13.92055        -2.87516
O         12.59743         5.97554         1.40974
H         11.72051         5.89501         1.86591
O         20.02129        17.21561         1.83783
H         20.08104        16.30054         2.19425
O         16.10452         8.05144        -1.74939
H         16.93663         7.65766        -2.08700
O         15.82533         1.38229        -1.82903
H         15.51178         2.16196        -2.35245
O          8.48294         3.58913         1.53861
H          9.03763         2.86394         1.89629
O         14.45373        18.53339         1.88951
H         14.50742        19.45580         2.21733
O         13.33936         6.10394        -2.15902
H         14.10793         6.48991        -2.62983
O         20.98989         6.03311         2.36837
H         20.23661         6.49017         2.79872
O         16.87778         5.39599         1.86213
H         17.66851         4.98992         2.27799
O          9.90397         5.74624         1.51412
H          9.22006         5.11750         1.86672
H          0.22947         1.61210         0.48817
H          0.22542         4.04614         0.63399
H          2.31363         0.32094         0.20701
H          0.23950         5.97750         0.64836
H          0.25144         8.39662         0.44641
H          0.31149        10.27402         0.59981
H          0.35396        12.69884         0.62229
H          0.47964        14.54458         0.98630
H          0.56561        16.98678         1.21761
H          1.79207        19.13692         0.96477
H          4.85284         0.30268        -0.05364
H          3.86856        20.36409         0.39003
H          7.26653         0.30745        -0.36590
H          6.23603        20.36265        -0.10790
H          9.80535         0.29169        -0.38030
H          8.67372        20.36847        -0.41887
H         12.25866         0.28749         0.10341
H         11.10642        20.36361        -0.45948
H         14.96061         1.43087         1.42556
H         13.50908        20.36295        -0.16844
H         17.32442         0.15058         0.05939
H         16.05508        20.34906         0.11962
H         19.73145         0.19408         0.34749
H         18.43859        20.35445        -0.18079
H         22.17793         0.23088         0.47122
H         20.94006        20.39867        -0.27093
H         24.60636         0.24976         0.28238
H         23.43726        20.36419         0.56304
H         27.01881         0.28320        -0.22548
H         25.92037        20.34055         0.56998
H         29.37093         0.33977        -1.01308
H         28.34718        20.35393         0.58243
H         31.26428         1.65893        -1.87653
H         32.56533         3.74904        -1.91986
H         32.68166         6.19618        -1.70229
H         32.79866         8.09746        -1.32608
H         32.82798        10.51298        -1.11999
H         32.85335        12.38901        -0.92583
H         32.89161        14.80321        -0.71795
H         32.92014        16.70866        -0.49629
H         30.75618        20.38002         0.13214
H         32.88370        19.16457        -0.34615
