         661
 CSIRO Nanostructure Databank - Neutral Graphene Oxide Data Set
C          5.80397        31.72467         1.29109
C          5.98125        33.08637         1.24522
C          8.35222        27.47646         0.34562
C          8.27842        28.87412         0.31743
C          7.10287        29.50767         0.93344
C          8.44088        31.88023         0.07553
C          6.68478        30.77862         0.62414
C          8.41313        33.15833         0.56213
C          7.16764        33.84709         0.85288
C          8.42665        35.98831         0.70680
C          7.21459        35.23136         0.97413
C          8.42516        37.39609         0.61566
C         10.77384        23.19034        -0.01324
C         10.76188        24.57926        -0.16012
C          9.56362        25.33253         0.11305
C         10.67096        27.41028        -0.59903
C          9.49568        26.70819        -0.04036
C         10.67568        28.92747        -0.52811
C          9.46575        29.63595        -0.04144
C         10.86749        31.70285         0.14440
C          9.58705        31.01853         0.09107
C         10.90981        33.04753         0.43399
C          9.71193        33.83081         0.91632
C         10.83195        36.00965         0.21935
C          9.66016        35.29777         0.52011
C         10.84868        37.42172         0.27015
C          9.63007        38.12464         0.46269
C         10.81108        40.31905         0.32525
C          9.64804        39.56788         0.40642
C         10.79796        41.73899         0.25085
C         13.25304        18.81680         0.16291
C         13.15086        20.22143        -0.22789
C         11.96661        21.03287         0.01793
C         13.21897        23.12791        -0.37993
C         11.96592        22.41265        -0.17741
C         13.20688        24.56325        -0.58690
C         11.97703        25.27206        -0.52643
C         13.11743        27.40812        -1.01693
C         11.95904        26.69409        -0.70872
C         13.14294        28.84363        -0.89264
C         11.98977        29.60297        -0.50811
C         13.35890        31.62014        -0.05029
C         12.08772        30.96915        -0.16662
C         13.44593        33.05463         0.13219
C         12.13706        33.77466         0.04627
C         13.34120        35.97114        -0.50864
C         12.03951        35.24314        -0.20314
C         13.32329        37.46680        -0.25418
C         12.17848        38.11115         0.49819
C         13.05920        40.27217        -0.70982
C         12.21258        39.70448         0.46669
C         13.17302        41.83806        -0.66119
C         11.96764        42.48366        -0.00314
C         13.25821        44.59372         0.25452
C         12.03997        43.85157         0.29173
C         13.25373        45.97389         0.50552
C         15.77906        14.59966         0.30577
C         15.75520        16.02853         0.38050
C         14.54948        16.73189         0.33605
C         15.72178        18.91694         0.20086
C         14.47786        18.16119         0.20348
C         15.75390        20.29172         0.02734
C         14.51771        21.01030        -0.34274
C         15.67419        23.24824        -0.16277
C         14.43133        22.46591        -0.26405
C         15.67459        24.63047        -0.69732
C         14.42091        25.24880        -0.87652
C         15.65580        27.38223        -1.34488
C         14.35234        26.63510        -1.46144
C         15.59100        28.84145        -1.47663
C         14.38242        29.52426        -0.95403
C         15.81493        31.24304        -0.04516
C         14.50183        30.81264        -0.37817
C         15.89951        33.35177         0.65475
C         14.61057        33.84454         0.28315
C         15.77796        36.05398        -0.13995
C         14.50398        35.36628         0.28558
C         15.74957        37.40427        -0.85329
C         14.45896        38.14160        -0.55860
C         15.71837        40.34268        -0.94069
C         14.42736        39.59866        -0.81945
C         15.71410        41.83436        -0.77867
C         14.48974        42.39573        -0.05834
C         15.71172        44.62589        -0.01636
C         14.51348        43.91610        -0.01121
C         15.71308        46.06641         0.22246
C         14.44499        46.74555         0.49020
C         15.58294        48.93584         0.67231
C         14.40246        48.13207         0.68184
C         15.56800        50.30555         0.85216
C         18.25196        10.35841         0.32645
C         18.19901        11.75620         0.11234
C         17.00763        12.46640         0.24630
C         18.24413        14.62099         0.31471
C         16.97548        13.89780         0.23264
C         18.23020        16.06904         0.52336
C         17.01111        16.73737         0.51060
C         18.23262        18.99219         0.71996
C         16.94686        18.21067         0.63025
C         18.21022        20.41158         0.32528
C         17.00201        21.03170         0.10800
C         18.18492        23.18406        -0.55963
C         16.96528        22.51484        -0.02515
C         18.17607        24.65448        -0.71840
C         16.90648        25.31753        -0.86281
C         18.13183        27.46037        -1.19189
C         16.88554        26.74034        -1.16969
C         18.16344        28.84521        -1.42237
C         16.88637        29.59279        -1.54332
C         18.21489        31.37862        -0.48816
C         16.95337        30.84685        -0.75910
C         18.39775        33.41915         0.51207
C         17.11121        34.08405         0.61517
C         18.10863        36.36081         0.33923
C         16.96914        35.49533         0.24806
C         18.22506        37.59015        -0.27114
C         16.98807        38.26545        -0.60786
C         18.29546        40.37654        -0.97488
C         16.99759        39.62399        -0.73039
C         18.28156        41.82454        -0.55289
C         17.01210        42.55501        -0.59501
C         18.20397        44.66047        -0.14847
C         16.99825        43.97154        -0.18954
C         18.15451        46.16547        -0.37735
C         16.88535        46.78404         0.17082
C         18.15694        48.94724         0.65413
C         16.86269        48.24835         0.34175
C         18.10710        50.31344         1.25891
C         16.80544        51.07210         1.13212
C         18.16411        53.12835         0.74310
C         16.92825        52.50116         0.84720
C         18.25259        54.50793         0.36720
C         20.74044         6.29305         1.52165
C         20.71889         7.58903         0.96323
C         19.49778         8.28151         0.78191
C         20.72028        10.28899        -0.00359
C         19.44687         9.61726         0.34224
C         20.73528        11.77276        -0.24816
C         19.41477        12.54332        -0.35847
C         20.69452        14.60722         0.67532
C         19.42949        13.93360         0.22783
C         20.69024        16.08866         0.36591
C         19.49934        16.78112         0.51240
C         20.69018        18.96963         0.06121
C         19.57331        18.27142         0.82343
C         20.76223        20.44392         0.13209
C         19.49667        21.20670         0.46019
C         20.72686        23.27342        -0.33897
C         19.48356        22.48592        -0.34488
C         20.67361        24.66950        -0.55713
C         19.39531        25.33436        -0.71782
C         20.67476        27.46300        -1.07877
C         19.37936        26.83290        -0.61253
C         20.62874        28.87439        -1.46641
C         19.35649        29.58188        -1.32180
C         20.67906        31.77497        -1.09217
C         19.35711        31.07733        -1.41533
C         20.62277        33.28765        -0.94827
C         19.61463        33.92454         0.03880
C         20.82581        36.10253        -0.37853
C         19.88778        35.30466         0.23964
C         20.73993        37.53241        -0.24015
C         19.50198        38.26334        -0.30323
C         20.74737        40.35187        -0.34531
C         19.53032        39.64879        -0.50039
C         20.72997        41.78348        -0.24840
C         19.46541        42.50093        -0.30402
C         20.68924        44.61456         0.03972
C         19.46690        43.95004        -0.15504
C         20.73087        46.08975         0.15148
C         19.45719        46.88696         0.01112
C         20.60640        48.81611         1.08312
C         19.44239        48.21280         0.66820
C         20.60862        50.24289         1.61023
C         19.38709        51.03747         1.20638
C         20.68933        53.06917         0.79083
C         19.41139        52.38938         0.96346
C         20.69864        54.42769         0.44017
C         19.47912        55.15431         0.20785
C         20.74857        57.19437        -0.43541
C         19.55283        56.54251        -0.18068
C         20.80440        58.59259        -0.78640
C         23.17838         3.80946         2.93655
C         21.95767         4.41665         2.57206
C         23.22695         6.14381         1.34992
C         21.93398         5.60301         1.82573
C         23.24768         7.53002         0.75314
C         21.97275         8.28222         0.67621
C         23.27596        10.30398        -0.07374
C         21.98878         9.59527         0.30442
C         23.18981        11.78391         0.22478
C         22.00095        12.48833         0.09162
C         23.18828        14.62527         0.38206
C         21.96619        13.89370         0.33188
C         23.14648        16.07667         0.30188
C         21.95534        16.76564         0.20359
C         23.26452        18.95550        -0.43669
C         21.95020        18.20800        -0.17191
C         23.23072        20.44995        -0.12279
C         21.94657        21.13250        -0.01798
C         23.14743        23.32836        -0.07211
C         21.94241        22.59948        -0.09952
C         23.11685        24.72385        -0.28071
C         21.90519        25.40186        -0.55692
C         23.12803        27.56565        -1.09823
C         21.88580        26.82385        -0.90511
C         23.14623        28.90746        -1.41131
C         21.90033        29.67402        -1.61572
C         23.15789        31.86849        -1.29074
C         21.88616        31.14889        -1.32419
C         23.23229        33.24702        -1.10628
C         21.99630        33.96965        -0.62862
C         23.31562        36.11812        -0.72089
C         22.00183        35.45423        -1.08214
C         23.16208        37.34925         0.17149
C         21.96215        38.21319        -0.16996
C         23.20422        40.33885        -0.04212
C         21.96923        39.62068        -0.15607
C         23.16154        41.73441         0.00029
C         21.93517        42.46925        -0.01200
C         23.11267        44.59415         0.54842
C         21.93163        43.91049         0.18008
C         23.10997        45.98351         0.89529
C         21.89563        46.72645         0.79634
C         23.08638        48.78009         1.45150
C         21.86164        48.08731         1.12571
C         23.09556        50.19268         1.37798
C         21.90045        50.94803         1.25390
C         23.19446        52.87489         0.34961
C         21.89983        52.30002         0.88289
C         23.26088        54.38198         0.38727
C         21.97053        55.17028         0.36788
C         23.21874        57.05368        -0.64190
C         22.01419        56.49855        -0.25488
C         23.20407        58.35157        -1.39150
C         21.99136        59.19614        -1.13401
C         23.31559        61.20403        -1.56667
C         22.09725        60.61296        -1.35371
C         24.40641         4.38151         2.63629
C         25.68198         6.27849         1.69071
C         24.48831         5.60101         1.90262
C         25.73344         7.61331         1.16290
C         24.51032         8.29530         0.80210
C         25.73618        10.38993         0.55287
C         24.50901         9.64622         0.51056
C         25.72135        11.79131         0.46108
C         24.41404        12.49292         0.74621
C         25.67070        14.68618         0.06669
C         24.40771        13.94790         0.39964
C         25.67378        16.08574         0.65538
C         24.38950        16.84245         0.54740
C         25.74349        19.00773         0.15886
C         24.43463        18.31797         0.28812
C         25.71022        20.45093         0.02369
C         24.41996        21.13823         0.00934
C         25.68604        23.35994        -0.05448
C         24.41954        22.62260         0.34888
C         25.67408        24.71669        -0.23635
C         24.39591        25.47474        -0.23404
C         25.67913        27.47498        -1.25418
C         24.40398        26.89629        -0.72346
C         25.68233        28.91475        -1.70294
C         24.38630        29.64900        -1.72119
C         25.69974        31.83723        -1.43052
C         24.40303        31.15623        -1.64943
C         25.71486        33.23987        -1.24122
C         24.46824        33.97515        -1.16788
C         25.78188        36.11514        -1.03692
C         24.49779        35.42345        -1.00733
C         25.88120        37.48448        -1.34726
C         24.39553        38.18377         0.48159
C         25.68697        40.23632         0.01174
C         24.45129        39.60472         0.05858
C         25.71818        41.71650         0.08355
C         24.42091        42.48025         0.08504
C         25.65836        44.53515         0.80416
C         24.34986        43.77770         0.85040
C         25.59493        45.94659         1.25681
C         24.29377        46.65997         1.32293
C         25.59478        48.71157         1.94442
C         24.32556        48.04546         1.58175
C         25.57221        50.26490         2.02086
C         24.44366        50.80861         1.11857
C         25.69134        52.88084         0.51838
C         24.40940        52.34231         1.12237
C         25.69517        54.12209        -0.35610
C         24.47025        54.99099        -0.17648
C         25.71255        56.95787        -1.00053
C         24.46885        56.31106        -0.58539
C         25.71908        58.29007        -1.32058
C         24.51383        59.07829        -1.38140
C         24.53047        60.44419        -1.54741
C         26.94711         8.30014         1.04752
C         28.19059        10.40805         0.66155
C         26.98351         9.68603         0.73116
C         28.19848        11.80707         0.47067
C         26.94093        12.52274         0.42116
C         28.16736        14.65237         0.29718
C         26.95059        13.93786         0.33899
C         28.19793        16.08607         0.27669
C         26.96309        16.84271         0.57848
C         28.20341        18.95311         0.17761
C         26.93486        18.29924         0.31575
C         28.20699        20.42562        -0.18123
C         26.90847        21.17518         0.02956
C         28.15682        23.31547        -0.10075
C         26.94086        22.61367        -0.02068
C         28.20202        24.72525        -0.32480
C         26.94989        25.53708        -0.12010
C         28.13389        27.46868        -1.22447
C         26.97229        26.84583        -0.89643
C         28.17903        28.83864        -1.90543
C         26.93491        29.67180        -1.66061
C         28.16614        31.79823        -1.46399
C         26.92245        31.07536        -1.50697
C         28.19472        33.18597        -1.22414
C         26.97289        33.92370        -1.08131
C         28.24329        36.02367        -0.82334
C         27.01396        35.35510        -0.93061
C         28.40299        37.51738        -1.06929
C         27.09894        38.37228        -1.12983
C         28.10764        40.21826         0.28169
C         26.95372        39.51943        -0.08455
C         28.08305        41.58766         0.71884
C         26.92214        42.34031         0.65866
C         27.99335        44.33383         1.61292
C         26.89793        43.73707         1.04642
C         27.94502        45.68696         2.19895
C         26.60559        46.42574         2.26430
C         28.00229        48.47223         2.64850
C         26.70167        47.94056         2.28878
C         28.05710        50.60155         2.06911
C         26.85086        50.99511         1.57569
C         28.16522        52.79070         0.39559
C         26.85602        52.20757         0.76508
C         28.20048        54.07218        -0.12311
C         26.96492        54.94827        -0.09987
C         27.01826        56.17146        -1.02881
C         29.40940        12.53583         0.35203
C         30.62784        14.67641         0.07838
C         29.41423        13.93220         0.25627
C         30.63789        16.05122        -0.01182
C         29.40288        16.78253         0.14356
C         30.70337        18.92111         0.28181
C         29.39142        18.23126         0.17328
C         30.72342        20.42524         0.37002
C         29.41544        21.15649         0.36176
C         30.71697        23.30163        -0.15196
C         29.43915        22.63074         0.15660
C         30.66630        24.66222        -0.48373
C         29.40490        25.36285        -0.57572
C         30.67042        27.50599        -1.03750
C         29.42715        26.69212        -1.29271
C         30.65436        28.92240        -1.25741
C         29.45348        29.58881        -1.58645
C         30.70961        31.82646        -1.77718
C         29.40791        31.05643        -1.77293
C         30.66828        33.20707        -1.25412
C         29.46978        33.86636        -1.02911
C         30.65656        35.92924        -0.31260
C         29.47192        35.28552        -0.67844
C         30.78997        37.44139        -0.24289
C         29.39461        38.07623        -0.03174
C         30.57822        40.11408         0.85072
C         29.45372        39.61902        -0.05475
C         30.55673        41.53419         1.28510
C         29.37124        42.36910         0.86681
C         30.54296        44.36626         1.78168
C         29.26161        43.54252         1.83817
C         30.52202        45.71595         2.02824
C         29.25464        46.41430         2.31705
C         30.45121        48.64890         2.08632
C         29.22633        47.88893         2.38849
C         30.44547        50.02340         1.64181
C         29.34595        50.90280         1.47688
C         29.36715        52.04510         0.65116
C         31.94965        16.74206        -0.32997
C         33.10920        18.95692        -0.16978
C         31.95252        18.23789        -0.10323
C         33.14593        20.40794        -0.09354
C         31.95101        21.15207         0.01184
C         33.18374        23.24468        -0.47024
C         31.95196        22.56491        -0.19433
C         33.10817        24.65836        -0.74257
C         31.88609        25.37431        -0.70234
C         33.12619        27.53113        -0.83513
C         31.88391        26.81240        -0.86110
C         33.12360        28.95780        -0.96315
C         31.91725        29.62870        -1.17914
C         33.27254        31.78404        -1.47364
C         31.98469        31.04216        -1.61453
C         33.18708        33.31253        -1.56584
C         31.94766        33.78964        -0.80173
C         33.18828        35.91524         0.01625
C         31.90376        35.17333        -0.20774
C         33.17360        37.28910         0.60080
C         31.81436        37.92774         0.83291
C         33.07012        40.15199         0.96073
C         31.88707        39.43603         0.81865
C         33.05347        41.58237         1.20508
C         31.83713        42.27071         1.41622
C         33.03547        44.42796         1.63175
C         31.79957        43.66851         1.61598
C         33.01179        45.80407         1.87806
C         31.77223        46.48724         2.37428
C         31.64610        47.93879         1.98290
C         34.36521        21.11101        -0.14055
C         35.70137        23.12953         0.01223
C         34.42576        22.51258        -0.27152
C         36.05701        24.39648        -0.45518
C         34.25175        25.43609        -1.09145
C         35.71812        27.47113        -1.02022
C         34.34790        26.81010        -0.90669
C         35.58793        28.95788        -0.72022
C         34.41470        29.64542        -0.85013
C         35.74659        31.81217        -1.24669
C         34.42857        31.16483        -0.71158
C         35.75481        33.30654        -0.99017
C         34.50338        34.04401        -1.21135
C         35.68844        36.06992        -0.08476
C         34.45693        35.43704        -0.59897
C         35.64408        37.43534         0.32597
C         34.40428        38.10996         0.52553
C         35.58298        40.23155         0.88034
C         34.35367        39.47973         0.80093
C         35.52403        41.63191         1.08656
C         34.29304        42.32282         1.23838
C         34.25724        43.72216         1.41829
C         36.90986        25.36767         0.08373
C         37.96439        27.50533         0.17355
C         36.85955        26.77426        -0.21415
C         38.01748        28.97016         0.20120
C         36.78198        29.72307        -0.27186
C         38.10604        31.80720        -0.31761
C         36.93460        31.12466        -0.63495
C         38.13738        33.24125        -0.35333
C         36.90884        33.97083        -0.55671
C         38.12992        36.07123         0.09145
C         36.90080        35.38390        -0.21749
C         38.09943        37.44927         0.38334
C         36.87544        38.15961         0.49349
C         36.81651        39.54867         0.75989
C         39.28590        29.69618         0.17184
C         40.54897        31.81367         0.15549
C         39.31367        31.06698         0.03228
C         40.56317        33.17284         0.11562
C         39.34508        33.93771        -0.05884
C         39.34539        35.33048         0.09674
O         17.60279        48.96862        -0.71417
O         22.77406        55.01695         1.59893
O         15.95477        32.02292         1.10221
O         27.15575        39.22955        -2.27062
O         12.74305        40.15743         1.67921
O         25.63675        27.78942        -2.68960
O         20.40891        46.81798        -1.10884
O         28.60007        45.76921         3.52922
O         15.01161        39.89139        -2.16404
O         19.10603        35.94022         1.22364
O         25.23499        42.46103        -1.11275
O         25.23471        37.72805         1.25985
O         23.03923        57.85155        -2.86996
O         32.95571        31.16289        -2.73928
O         13.82671        20.48059        -1.50567
O         20.81965        10.85006        -1.39555
O         16.10437        29.45517        -2.75682
O         31.94436        33.95726         0.64336
O         18.81117        22.41426        -1.64279
O         20.97799        18.43241        -1.27171
O         30.85314        19.60929         1.58588
O         24.27652        30.45127        -2.94904
O         37.03267        29.52059         1.18073
O         25.92319        45.63098        -0.13730
O         34.56504        35.26294        -2.03379
O         24.42758        26.61721         0.72512
O         16.38300        23.16155         1.15219
O         33.38852        36.11939         1.46561
O         11.75449        34.31665        -1.32024
O         13.13769        42.20601        -2.10628
O         35.36189        24.78796        -1.62740
O         21.18533        29.23309        -2.81896
O         17.43718        18.72548         1.94032
O         28.03022        49.76179         3.18889
O         30.02688        31.56422        -3.03174
O         24.16666        17.82653         1.62963
O          7.28756        31.35126        -0.51475
O         17.33594        50.57227         2.46453
O         26.39023        16.33393         1.87458
O         18.39269        32.01265         0.72063
O         23.27467         6.34762        -0.10980
O         10.38956        28.21966        -1.78972
O         29.30321        21.99411         1.52470
O         30.21788        40.48022         2.23277
O         16.24666        42.49491        -1.95654
O         28.43297        20.44610        -1.64071
H         27.64932        20.04210        -2.07178
O         27.30969        55.77243        -2.37162
H         26.71452        55.01508        -2.58734
O         22.11758        33.96142         0.81831
H         22.43301        34.85105         1.12647
O         13.65603        43.54338        -2.28370
H         14.59885        43.38040        -2.56328
O         24.96450        38.11018        -2.06941
H         25.48756        38.91799        -2.41640
O         19.58951        21.59897         1.86112
H         19.60713        20.77597         2.39814
O         19.97404        18.38213         2.22165
H         19.15151        18.25944         2.75315
O         25.71440        53.66419        -1.74050
H         24.85224        53.19508        -1.88018
O         35.73540        31.60588        -2.68292
H         36.49871        32.08186        -3.07070
O         28.95679        37.56806        -2.40443
H         28.38832        38.25534        -2.87540
O         32.29713        16.46073        -1.70273
H         31.58401        16.80626        -2.27785
O         29.54529        26.30360        -2.71094
H         29.26277        27.09353        -3.24626
O         14.29751        35.74419         1.67566
H         15.06572        35.44148         2.20372
O         20.54649        50.13113         3.06654
H         20.47808        51.03652         3.43662
O         28.86227        37.66740         1.23622
H         29.54508        37.82159         1.93393
O         29.19104        43.00754         3.18027
H         29.06557        43.77385         3.78587
O         13.64392        35.80883        -1.90479
H         13.05342        35.10186        -2.25937
O         18.41601        40.44698        -2.44236
H         17.65323        40.98245        -2.76264
O         20.15361        33.77370        -2.23623
H         19.57590        33.07825        -2.65341
O         24.43974        22.68225         1.81461
H         23.69983        22.13326         2.15048
O         14.63212        41.95247         1.30506
H         13.88063        41.31514         1.55231
O         26.00037        46.02238         3.53134
H         26.72305        46.03210         4.20119
O         24.27497        52.85096         2.46049
H         24.70268        52.21972         3.08977
O         24.23007        43.36940         2.25350
H         24.28899        44.17174         2.81745
O         36.14215        27.37529        -2.40774
H         36.10426        26.42080        -2.64701
O         22.85543        36.68062         1.45434
H         23.71182        36.66446         1.95034
O         28.21322        28.56447        -3.35855
H         27.30308        28.25795        -3.59731
O         31.85423        46.44685         3.85873
H         30.94343        46.56005         4.20767
O         29.72638        40.11246        -1.39600
H         28.88857        39.94693        -1.91954
O         12.42310        37.74252         1.87841
H         12.68108        38.61209         2.31591
O         29.66663        42.90268        -0.44742
H         29.69343        42.13617        -1.07225
O         18.96264        31.47653        -2.78013
H         19.47656        30.91264        -3.40161
O         25.63252        14.92613        -1.38743
H         25.58386        14.05474        -1.83553
O         32.88016        33.65873        -2.92642
H         32.87449        32.82232        -3.45447
O         31.36247        37.55314         2.15261
H         31.88327        36.75335         2.41289
O         26.88795        55.48308         1.24639
H         26.64367        54.75168         1.85340
O         24.28956        12.43135         2.23193
H         24.90059        13.10165         2.60754
O         23.02689        58.99907        -3.72684
H         23.97906        59.12371        -3.96077
O         19.19591        12.77591        -1.78543
H         19.47048        11.94878        -2.24548
O         20.65625        14.54172         2.16152
H         20.06947        15.26319         2.47645
O         25.30587        50.58635         3.40788
H         26.10993        50.32962         3.91498
O         23.43644        10.18603        -1.52476
H         22.55480        10.40400        -1.91800
O         23.55302        18.81581        -1.85046
H         22.69258        18.89820        -2.32228
O          9.83860        33.85326         2.38276
H          9.10079        34.39914         2.73012
O         14.18250        26.43851        -2.91727
H         14.25588        27.31940        -3.34486
O         21.93085        35.60307        -2.50993
H         21.13281        35.11954        -2.83108
O         24.79517        50.42043        -0.24757
H         24.75400        49.44081        -0.31049
O         31.38630        37.87292        -1.48015
H         30.67048        37.83384        -2.17148
O         15.84830        37.11286        -2.27704
H         15.56773        37.93445        -2.74296
O         34.27077        31.52319         0.67239
H         34.96200        31.06357         1.19629
O         23.30129        52.49768        -1.05138
H         23.61634        51.55851        -1.08002
O         19.31436        27.13937         0.83897
H         20.00803        26.60810         1.28605
O         18.01552        46.29003        -1.82209
H         18.92327        46.42305        -2.18488
O         27.01133        25.93582         1.28930
H         26.10763        26.24998         1.53731
O         12.33128        39.90406        -1.89239
H         12.90868        40.09941        -2.66393
H          4.93023        31.33546         1.83790
H          5.18858        33.69673         1.71059
H          7.48356        26.92093         0.73222
H          6.57928        28.93527         1.71451
H          6.30027        35.78914         1.22849
H          7.47718        37.94334         0.73069
H          9.83748        22.66913         0.23686
H          8.68572        24.78775         0.49302
H          8.67707        40.08504         0.31878
H          9.88556        42.28371         0.54987
H         12.33081        18.25748         0.38080
H         11.05965        20.53770         0.39629
H         11.13052        44.36958         0.63759
H         12.29620        46.48131         0.69889
H         14.82345        14.05550         0.27193
H         13.60833        16.16358         0.29275
H         13.43188        48.61888         0.86149
H         14.60383        50.82469         0.97024
H         17.31729         9.84242         0.59807
H         16.06988        11.92183         0.43817
H         16.02059        53.05994         0.57209
H         17.32070        55.06619         0.19258
H         19.78194         5.83072         1.80395
H         18.55697         7.77411         1.04387
H         18.60695        57.08920        -0.31192
H         19.88380        59.19140        -0.71206
H         23.14987         2.87680         3.51757
H         21.01037         3.96632         2.90217
H         23.37959        62.29212        -1.70872
H         21.18442        61.22449        -1.30276
H         25.33365         3.91070         2.99380
H         26.62227         5.82514         2.04041
H         26.67713        58.79364        -1.52503
H         25.49146        60.97482        -1.62081
H         27.89127         7.77253         1.24952
H         29.14631         9.87815         0.78923
H         29.17405        54.54468        -0.32812
H         27.85056        56.84447        -0.69556
H         30.36302        11.98776         0.32473
H         31.57406        14.12193        -0.01066
H         31.40346        50.37261         1.22198
H         30.31352        52.38653         0.20589
H         32.76335        16.28268         0.28997
H         34.05613        18.43701        -0.38025
H         33.95812        46.36649         1.88679
H         32.55268        48.47438         1.66090
H         35.30656        20.54699        -0.06573
H         36.37176        22.59946         0.70552
H         36.46276        42.20466         1.12664
H         35.20426        44.28190         1.43873
H         37.61066        25.05658         0.87399
H         38.84492        26.96623         0.55842
H         39.04633        37.98257         0.55478
H         37.75354        40.11513         0.86659
H         40.22459        29.13237         0.28046
H         41.47877        31.25348         0.33241
H         41.50527        33.72208         0.25849
H         40.28958        35.85007         0.31814
