         344
 CSIRO Nanostructure Databank - Neutral Graphene Oxide Data Set
C          1.20154         3.44037         0.53732
C          0.00140         4.10764         0.66527
C          1.11969         6.27626         0.58514
C         -0.04158         5.52146         0.65427
C          1.08445         7.76315         0.26755
C         -0.16385         8.53385         0.64285
C          1.07317        10.69511         0.94614
C         -0.17656         9.86125         0.83450
C          1.08016        12.05562         0.24461
C         -0.10191        12.75548        -0.07486
C          1.09047        14.90012        -0.10334
C         -0.09469        14.13100        -0.27667
C          1.07449        16.34519        -0.06100
C         -0.09906        17.10743        -0.17500
C          1.13720        19.25052        -0.17676
C         -0.08203        18.50105        -0.13030
C          1.13136        20.67382        -0.34388
C          0.01234        21.47917        -0.00216
C          1.10286        23.55953        -0.90431
C         -0.00522        22.83931        -0.16932
C          1.16768        25.04226        -0.59626
C          0.00208        25.80294        -0.63655
C          1.24061        27.86872        -0.27141
C          0.03181        27.19878        -0.47363
C          1.29869        29.30814        -0.15786
C          3.66671         3.50021         0.34518
C          2.42147         4.16967         0.46875
C          3.61811         6.31308         0.59199
C          2.38423         5.60027         0.53962
C          3.57429         7.74220         1.08709
C          2.33280         8.51276         0.67173
C          3.55385        10.61958         0.38613
C          2.31700         9.87069         0.69950
C          3.58564        12.10331         0.66153
C          2.29657        12.78074         0.22261
C          3.58106        14.89081         0.49610
C          2.30278        14.17686         0.09687
C          3.60111        16.33421        -0.05033
C          2.32849        17.09579         0.35176
C          3.61348        19.23025        -0.23637
C          2.36243        18.53755        -0.11437
C          3.62941        20.62513        -0.53047
C          2.36013        21.33166        -0.92604
C          3.60914        23.50772        -0.58949
C          2.41196        22.83066        -0.71714
C          3.64041        24.95404        -0.42716
C          2.42180        25.69207        -0.39603
C          3.69241        27.78435        -0.01815
C          2.45965        27.11633        -0.21743
C          3.73256        29.23396         0.11015
C          2.48190        29.95972         0.00106
C          6.13897         3.51877         0.19630
C          4.87265         4.20271         0.34964
C          6.09696         6.35491         0.55640
C          4.83991         5.63150         0.53272
C          6.11718         7.72776         0.49540
C          4.91966         8.53481         0.94515
C          6.08865        10.61682         0.03598
C          4.81998         9.87062         0.24000
C          6.02224        11.98017        -0.23026
C          4.83167        12.76490         0.08890
C          6.00822        14.92242        -0.34384
C          4.82221        14.13523         0.06310
C          6.11187        16.37078        -0.05422
C          4.86718        17.10025         0.39326
C          6.07220        19.21276        -0.21261
C          4.84858        18.53769        -0.06863
C          6.06040        20.60603        -0.45394
C          4.85041        21.33125        -0.57639
C          6.07386        23.49825        -0.58514
C          4.87374        22.78847        -0.61840
C          6.11167        24.92037        -0.39274
C          4.87922        25.63385        -0.28967
C          6.15606        27.71438         0.12746
C          4.91135        27.04845        -0.04109
C          6.17411        29.12455         0.66148
C          4.92339        29.88676         0.32331
C          8.61528         3.49378         0.22159
C          7.35212         4.16028         0.33105
C          8.61832         6.33609         0.45579
C          7.36608         5.58896         0.81640
C          8.60243         7.73147         0.24083
C          7.33713         8.46309         0.22935
C          8.53157        10.48520        -0.53564
C          7.29716         9.83097        -0.06185
C          8.53950        11.96837        -0.75521
C          7.23269        12.68968        -0.72623
C          8.56263        14.90656        -0.79302
C          7.23712        14.18879        -0.74915
C          8.60834        16.27543        -0.15038
C          7.29909        17.03266        -0.21101
C          8.56322        19.12366        -0.31792
C          7.34105        18.47771        -0.20243
C          8.57475        20.59712        -0.21672
C          7.33599        21.29641        -0.65598
C          8.62864        23.50831        -0.51010
C          7.35576        22.79288        -0.74198
C          8.60535        24.92435        -0.42231
C          7.35095        25.61680        -0.32545
C          8.62197        27.74012        -0.10358
C          7.36507        27.02660        -0.07254
C          8.62481        29.19320         0.09440
C          7.45725        29.85376         0.37827
C         11.08188         3.48617         0.22983
C          9.82544         4.16449         0.37249
C         11.06237         6.32586         0.48432
C          9.84136         5.62718         0.47102
C         11.07783         7.73604         0.30974
C          9.83887         8.40364         0.10441
C         11.10030        10.57675        -0.28169
C          9.85228         9.79168        -0.36420
C         11.09703        11.96759        -0.40831
C          9.78374        12.71312        -0.29632
C         11.11004        14.88538        -0.46869
C          9.85020        14.15207        -0.75484
C         11.10754        16.30352        -0.52431
C          9.85811        17.04365        -0.51130
C         11.05246        19.21236        -0.72334
C          9.81804        18.42602        -0.49807
C         11.10943        20.63298        -0.41975
C          9.85267        21.35934        -0.22029
C         11.08851        23.50508        -0.42605
C          9.83944        22.81623        -0.45295
C         11.07964        24.93611        -0.47693
C          9.83946        25.63486        -0.42392
C         11.04708        27.83321        -0.74497
C          9.80890        27.06944        -0.35425
C         11.09069        29.23373        -0.17958
C          9.89742        29.87851         0.09573
C         13.54157         3.48574         0.10372
C         12.29769         4.14313         0.33382
C         13.59866         6.31570         0.46761
C         12.32498         5.57669         0.80944
C         13.59334         7.81545         0.69447
C         12.30553         8.47542         0.24315
C         13.54594        10.59603        -0.11487
C         12.31689         9.86656        -0.03871
C         13.54938        11.99904        -0.28506
C         12.31559        12.70679        -0.34931
C         13.55745        14.85834        -0.23375
C         12.31950        14.15697        -0.35522
C         13.56043        16.28697        -0.24009
C         12.34867        16.99036        -0.44818
C         13.60755        19.17442        -0.26804
C         12.40877        18.43477        -0.67244
C         13.59021        20.61534        -0.25471
C         12.32632        21.34262        -0.36944
C         13.53779        23.54630         0.04149
C         12.29998        22.76346        -0.30749
C         13.61038        24.87336        -0.71579
C         12.32598        25.67446        -0.53206
C         13.58482        27.81207        -0.66557
C         12.32667        27.04472        -0.56525
C         13.56977        29.23359        -0.27316
C         12.34756        29.88203        -0.04299
C         15.99052         3.50355        -0.17026
C         14.75497         4.17280         0.11281
C         16.07240         6.36357         0.40429
C         14.75958         5.62184         0.30068
C         16.00165         7.71007        -0.30275
C         14.80422         8.51541         0.12059
C         16.00061        10.53361        -0.73799
C         14.78408         9.84928        -0.15584
C         16.03233        12.02073        -0.41771
C         14.81293        12.71975        -0.30250
C         16.03190        14.86419        -0.15125
C         14.80299        14.14536        -0.20368
C         16.03272        16.29894        -0.03669
C         14.78533        17.02002        -0.06570
C         15.97644        19.15004         0.59323
C         14.76058        18.43606         0.04868
C         16.03136        20.61573         0.18558
C         14.79376        21.32515        -0.08711
C         16.01708        23.46218        -0.01931
C         14.82674        22.76509        -0.08353
C         16.02962        24.91737        -0.00563
C         14.87200        25.61152        -0.32059
C         16.09269        27.78787        -0.02521
C         14.91516        27.05692        -0.50728
C         16.02175        29.19205         0.09269
C         14.80773        29.88145        -0.04187
C         18.41737         3.47891        -0.68740
C         17.20567         4.16826        -0.25978
C         18.48811         6.26911        -0.16208
C         17.28778         5.59203        -0.04811
C         18.54817         7.71447        -0.14595
C         17.29839         8.47948        -0.17955
C         18.56425        10.54540        -0.71518
C         17.28394         9.82093        -0.38992
C         18.52258        12.03481        -0.43973
C         17.26477        12.72420        -0.36093
C         18.50517        14.86778        -0.19062
C         17.26620        14.15240        -0.21314
C         18.50477        16.29717        -0.09347
C         17.25666        17.00171         0.00740
C         18.44390        19.13491         0.26208
C         17.27165        18.43595         0.23344
C         18.42439        20.56071         0.76835
C         17.21162        21.29518         0.27015
C         18.50514        23.46935         0.43303
C         17.32837        22.73520        -0.16920
C         18.48110        24.88544         0.52215
C         17.26729        25.62806         0.25766
C         18.48156        27.75978         0.64405
C         17.26911        27.04155         0.30926
C         18.48705        29.17748         0.69066
C         17.22681        29.99081         0.52545
C         19.61625         4.10050        -0.70221
C         20.95656         6.25955        -0.61694
C         19.77638         5.48038        -0.11536
C         20.95895         7.61432        -0.56888
C         19.76652         8.37243        -0.26301
C         21.02376        10.62519        -0.41947
C         19.76896         9.87579        -0.03260
C         20.97640        11.96620        -0.55844
C         19.73014        12.72298        -0.42179
C         20.94475        14.90252        -0.30099
C         19.74376        14.16434        -0.29818
C         20.93338        16.29317        -0.23007
C         19.73487        17.00754        -0.11523
C         20.92058        19.18659         0.47142
C         19.74548        18.52213        -0.19755
C         20.90559        20.53040         0.73376
C         19.71853        21.31083         0.62808
C         20.87722        23.47663         1.02610
C         19.69818        22.74166         0.70068
C         20.86183        24.85075         1.09650
C         19.67913        25.59450         0.85154
C         20.86850        27.77385         1.16684
C         19.68625        27.04243         0.89547
C         20.86414        29.16036         1.17881
C         19.67377        29.86353         0.94703
O          3.98239        10.08834        -0.94602
O          9.27856        14.62223        -2.02128
O         11.79738        18.85647        -1.93045
O          9.12018        21.04604         1.07861
O          6.33509        14.69747        -1.79635
O          3.58866        12.26255         2.09362
O          7.86429        12.25107        -1.99901
O          9.17223         9.84257        -1.69001
O         14.40269        27.49018        -1.83863
O          7.43539        21.95186        -1.96597
O         20.04654         5.26346         1.32583
H         19.24669         4.83947         1.70443
O         16.27709         6.65982         1.81603
H         16.24290         5.81802         2.31488
O         13.60836         8.01847         2.14874
H         13.01946         7.32343         2.53421
O         15.88340        10.40020        -2.19924
H         16.78533        10.56379        -2.56889
O          3.57958        16.27681        -1.48885
H          4.35731        15.76953        -1.81087
O         10.93869        28.02412        -2.20223
H         10.90346        27.13509        -2.61517
O         12.34510         5.51388         2.29787
H         13.01543         4.84264         2.54907
O          0.75432        23.46135        -2.32892
H          1.02584        22.55596        -2.62560
O          5.32770         8.95096         2.28202
H          5.24653         8.16636         2.86925
O         19.87068        18.84545        -1.63097
H         19.11229        18.42933        -2.09285
O         18.24294        20.45115         2.24556
H         19.03230        19.98558         2.59802
O          9.55406        12.81231         1.15496
H         10.22623        13.41650         1.53763
O          2.24751        17.16290         1.81462
H          2.42100        16.23934         2.15160
O          2.23506        21.13493        -2.40404
H          3.10607        21.35726        -2.79986
O          6.14099        28.98375         2.14427
H          5.30291        28.52459         2.36792
O          3.54996        14.90406         1.95051
H          3.58104        13.92276         2.22908
O          7.41374         5.47984         2.29355
H          6.61329         4.98323         2.56902
O         15.82360         7.44764        -1.72377
H         15.77525         8.32625        -2.17406
O          3.34020         7.54955         2.52797
H          3.03076         8.40740         2.89414
O         15.83644        19.11107         2.04340
H         16.61729        19.59988         2.41018
O          1.11900         7.77236        -1.20796
H          1.45290         8.64936        -1.49580
O         17.61163        22.70266        -1.61849
H         16.79506        22.40193        -2.07174
O         13.72014        24.60592        -2.13819
H         13.91410        25.46846        -2.57216
O         18.70805        10.41777        -2.16883
H         19.50786        10.92437        -2.42978
O          8.76467        15.95172         1.28332
H          8.49272        16.73701         1.80567
O         13.40133        23.91345         1.45093
H         13.31959        23.08648         1.97096
O          1.18654        11.07823         2.35508
H          2.07650        11.55361         2.45161
O         19.57561        10.06565         1.39773
H         20.25620         9.54172         1.86887
O          4.94974        17.16414         1.84122
H          4.04455        17.38737         2.17390
O         17.44831        31.08369        -0.38165
H         17.59696        30.71152        -1.27504
H          1.22922         2.34195         0.49318
H         -0.93962         3.54308         0.72742
H         -1.02428         6.01266         0.67350
H         -1.12524         7.99692         0.62407
H         -1.13321        10.36144         1.05456
H         -1.06000        12.21748        -0.11864
H         -1.04742        14.63510        -0.49135
H         -1.06901        16.60808        -0.31394
H         -1.03971        19.03652        -0.20056
H         -0.85935        20.99502         0.46525
H         -0.89970        23.40480         0.13137
H         -0.96175        25.31231        -0.83185
H         -0.90462        27.77247        -0.52896
H          0.35700        29.87357        -0.21820
H          3.67720         2.40292         0.26003
H          2.50916        31.05657         0.07747
H          6.11689         2.44300        -0.04017
H          4.93327        30.98248         0.42935
H          8.62338         2.41219         0.01289
H          7.47761        30.93944         0.56128
H         11.07114         2.41283        -0.01771
H          9.91493        30.93395         0.41019
H         13.53380         2.41085        -0.13509
H         12.36309        30.93055         0.29375
H         15.95724         2.42193        -0.37269
H         14.80296        30.96342         0.15792
H         18.32242         2.43871        -1.03518
H         16.99191        30.46410         1.52065
H         20.51841         3.56135        -1.02908
H         21.86337         5.71061        -0.91126
H         21.87262         8.15813        -0.85173
H         21.99184        10.10675        -0.48270
H         21.90671        12.51341        -0.76716
H         21.91268        14.39120        -0.38101
H         21.89000        16.83084        -0.28114
H         21.85963        18.62863         0.59308
H         21.85185        21.01657         1.01785
H         21.81475        22.94468         1.23507
H         21.79540        25.36932         1.35030
H         21.81318        27.25031         1.36227
H         21.79405        29.70965         1.38093
H         19.66569        30.96212         0.96541
