         292
 CSIRO Nanostructure Databank - Neutral Graphene Oxide Data Set
C          1.33052         2.06707         0.64488
C          1.29670         3.43989         0.38205
C          2.52893         1.37343         0.56684
C          2.46383         4.13776        -0.00043
C          1.23010         6.29881        -0.23196
C          1.18457         7.69906        -0.46941
C          2.44336         5.59435        -0.19610
C          2.32540         8.45486        -0.45509
C          1.10460        10.69420        -0.86397
C          1.05227        12.01267        -0.61633
C          2.38339         9.88097        -0.96712
C          2.25017        12.81385        -0.12938
C          1.21396        15.03285        -0.90520
C          1.25282        16.46361        -1.03799
C          2.26890        14.31223        -0.43231
C          2.38609        17.20131        -0.73959
C          2.46395        18.63134        -0.94896
C          3.72317         2.05319         0.20652
C          3.68347         3.44453        -0.09845
C          4.95851         1.35893         0.21145
C          4.90360         4.12506        -0.67862
C          3.66858         6.30479        -0.29919
C          3.62496         7.79337        -0.05219
C          4.92254         5.62797        -0.44001
C          4.85734         8.54182        -0.48518
C          3.57299        10.64622        -0.31687
C          3.50217        12.12325        -0.79725
C          4.87396         9.90172        -0.56567
C          4.84312        12.86180        -0.71052
C          3.52745        15.03043         0.02569
C          3.58035        16.52125        -0.29340
C          4.78169        14.39731        -0.63968
C          4.76156        17.21564        -0.14911
C          3.62100        19.32329        -0.75717
C          4.83977        18.66366        -0.32504
C          6.19499         2.01299        -0.01013
C          6.21754         3.43861        -0.34344
C          7.37706         1.30806         0.20843
C          7.39730         4.12330        -0.43780
C          6.11455         6.31748        -0.56334
C          6.15180         7.81918        -0.76821
C          7.43838         5.60510        -0.76942
C          7.28970         8.47963         0.06973
C          6.14782        10.62530        -0.44270
C          6.14076        12.10729        -0.53846
C          7.30684         9.97775        -0.12298
C          7.39383        12.82934        -0.20495
C          6.05949        15.01004        -0.07838
C          6.03826        16.49265         0.09406
C          7.35189        14.30492        -0.37144
C          7.30992        17.29035        -0.14995
C          5.99658        19.36505        -0.06109
C          7.18922        18.66326         0.55321
C          8.67475         1.89746        -0.06658
C          8.69956         3.41307        -0.39697
C          9.87843         1.31175         0.52640
C          9.94538         4.13269        -0.06163
C          8.58205         6.29364         0.05460
C          8.65657         7.82469        -0.25428
C          9.92336         5.62128        -0.20841
C          9.84502         8.48946         0.44087
C          8.41285        10.71548         0.60819
C          8.54981        12.16898         0.16449
C          9.74965         9.95502         0.75313
C          9.81918        12.85761         0.26556
C          8.60145        15.07335        -0.15462
C          8.50959        16.49175         0.32199
C          9.88091        14.31976         0.03667
C          9.73115        17.23047         0.73269
C          8.51365        19.39536         0.54791
C          9.74080        18.72391         0.68179
C         11.01926         2.03423         0.70453
C         11.04731         3.46325         0.42200
C         12.20878         1.33699         1.34832
C         12.25378         4.22539         0.85282
C         11.17032         6.41562         0.03987
C         11.04231         7.83684         0.51324
C         12.46394         5.61219         0.24586
C         12.26776         8.53242         1.10902
C         11.04139        10.73595         0.76537
C         11.03148        12.20051         0.50841
C         12.33812        10.01173         0.72327
C         12.27770        12.89973         0.55903
C         11.09935        15.05680         0.51154
C         11.01841        16.48520         0.93000
C         12.34575        14.29698         0.75848
C         12.29219        17.22828         1.08963
C         10.98240        19.37565         0.74149
C         12.26359        18.62764         0.46942
C         13.53600         2.00496         1.05854
C         13.51523         3.48763         1.20141
C         14.64594         1.29984         0.75015
C         14.87289         4.19715         1.21681
C         13.57444         6.41698         0.87809
C         13.55287         7.78404         0.83430
C         14.84059         5.68378         0.86472
C         14.83381         8.52490         0.81668
C         13.50608        10.70262         0.62515
C         13.52942        12.15679         0.18187
C         14.81383        10.02000         0.75584
C         14.80633        12.91267         0.51456
C         13.56953        14.98934         0.89258
C         13.62469        16.48157         1.22003
C         14.80999        14.27505         0.78506
C         14.75521        17.15372         0.42860
C         13.56030        19.35446         0.68140
C         14.76106        18.67345         0.55612
C         16.01945         1.93951         0.67159
C         15.84321         3.42404         0.28120
C         16.98073         1.27499        -0.35608
C         17.25016         4.11906         0.31012
C         15.97079         6.32772         0.44625
C         16.00202         7.80784         0.13196
C         16.92492         5.46839        -0.28929
C         17.34314         8.42006         0.67338
C         16.05539        10.67315         0.15581
C         16.06958        12.20778         0.23214
C         17.34050         9.97259         0.66301
C         17.36519        12.95598         0.29732
C         16.10937        15.00523         1.15228
C         16.06027        16.52670         0.91071
C         17.38974        14.39486         0.61233
C         17.32239        17.28475         0.66902
C         15.98681        19.36200         0.36650
C         17.22735        18.68861         0.16588
C         18.27595         2.05722        -0.63135
C         18.32041         3.42193        -0.48825
C         19.47210         1.36548        -1.07160
C         19.41880         4.21926        -1.09606
C         18.90535         6.38526         0.28534
C         18.63265         7.84814         0.09139
C         19.59847         5.74015        -0.90301
C         19.76418         8.53416        -0.21246
C         18.63195        10.71808         0.53240
C         18.67828        12.25874         0.60297
C         19.77410        10.04988        -0.23753
C         19.81266        12.93008        -0.18566
C         18.63797        15.06704         0.55966
C         18.64230        16.56523         0.61090
C         19.83522        14.39992         0.22029
C         19.79820        17.27773        -0.02144
C         18.33271        19.31771        -0.36631
C         19.49843        18.51055        -0.85912
C         20.61794         2.01604        -1.42575
C         20.61925         3.46926        -1.63898
C         21.85797         4.25417        -1.92768
C         21.06989         6.27410        -0.67006
C         21.01743         7.86435        -0.83434
C         22.01444         5.55231        -1.61494
C         22.27730         8.52798        -0.32302
C         21.12222        10.68541         0.11639
C         21.13734        12.19685         0.07589
C         22.33067         9.83158        -0.00522
C         22.34133        12.97943        -0.29264
C         21.16190        15.13552         0.22381
C         21.02778        16.52416        -0.39265
C         22.31289        14.31908        -0.31868
C         22.03131        17.20240        -1.00775
C         20.75114        19.28781        -1.15982
C         21.91752        18.62369        -1.29935
O         17.01525         5.61845        -1.51835
O         11.50014        16.89026         2.26619
O         16.69013        17.22951         2.00987
O         10.84143        14.85975        -0.94266
O          8.07689        14.87716        -1.52167
O          8.83325         2.40452        -1.43910
O          8.77908        16.66287         1.74046
O         13.08970         5.31362        -1.00038
O          6.05898        15.59699         1.26906
O         18.13364        10.32043         1.85011
O         12.61032         4.00020         2.24312
O          5.65947        12.51589        -1.89217
O         16.75120        12.73943        -1.02452
O         19.62339        17.29060         1.43642
O         19.52375         3.90186        -2.53377
O         15.07776         9.33602         2.02195
O         10.34595        10.36387         2.02882
O         21.14905        11.48017         1.34477
O         19.07981         5.96617         1.43346
O         10.66066         6.17441        -1.33215
O         21.56528         5.96211         0.63219
H         20.82056         5.93195         1.28468
O         12.12432         8.47776         2.55852
H         12.97252         8.79372         2.94251
O          8.33440         6.05369         1.44599
H          7.70691         6.74471         1.78239
O         12.20531        18.35238        -0.98400
H         12.98888        17.79043        -1.21523
O         17.33164         7.97358         2.04148
H         17.93376         8.55702         2.55576
O          6.85465        18.46769         1.95417
H          7.50557        17.82038         2.32492
O         14.56540        16.82443        -0.97419
H         15.25184        17.28866        -1.49933
O          4.77244         3.99883        -2.13999
H          4.71587         3.04216        -2.34960
O         14.01937        16.59731         2.60319
H         13.21199        16.45297         3.14734
O          3.16850        12.18291        -2.20990
H          4.01969        12.18592        -2.70795
O         19.14984         6.37115        -2.11523
H         19.01035         5.64990        -2.77768
O         15.83480         7.96055        -1.27309
H         16.23694         7.17742        -1.72829
O         16.24517        14.78504         2.58136
H         16.57947        15.63226         2.96767
O         16.57239         1.82086         1.99871
H         17.44134         2.29035         2.00852
O         12.22045        -0.04257         0.98913
H         12.32492        -0.10657         0.01774
O         18.94915        12.65237         1.96947
H         18.76437        11.88537         2.55802
O         20.98074         8.18460        -2.25304
H         20.25298         7.62501        -2.63366
O          7.87664        10.79961         1.97949
H          8.66531        10.89645         2.57121
O          8.89649         8.04898        -1.66066
H          9.64121         7.44157        -1.92697
O         19.58417        12.96092        -1.60849
H         18.61642        12.92422        -1.78251
O          4.71465        14.86128        -2.00903
H          5.32602        14.29826        -2.53823
O          6.96427         8.27692         1.47002
H          7.20679         9.10540         1.96337
O          3.58269        14.89515         1.46609
H          4.41749        15.32588         1.78563
O          3.64762         7.89926         1.44370
H          2.84343         7.44607         1.77968
O          6.36602         8.02417        -2.18029
H          7.31669         7.81780        -2.38071
O         15.28342         3.45909        -1.03342
H         14.60502         4.19090        -1.10954
O         17.71609         4.14233         1.66299
H         17.03680         4.59016         2.23178
O          3.43530        10.64620         1.11580
H          3.55509         9.72025         1.44331
O          7.44537        17.54366        -1.55752
H          7.61192        16.67908        -2.00557
O          2.64292         9.66806        -2.37975
H          2.66810        10.56812        -2.79003
O         13.49594        12.09241        -1.28910
H         13.42482        13.00982        -1.62950
O         16.01012        10.35784        -1.24468
H         16.47894        11.06452        -1.74285
O         15.33772         4.13878         2.58857
H         15.50527         3.18442         2.79745
O          2.18220        12.69499         1.29612
H          2.74237        13.39568         1.70887
O         19.04878        17.92866        -2.14503
H         19.11178        18.62982        -2.82775
O          7.79802         5.69833        -2.16777
H          7.08011         5.27817        -2.68888
O         17.24364        -0.05415         0.07829
H         17.59631        -0.56994        -0.67327
O         21.48264        15.34648         1.63225
H         20.85474        16.03042         1.97733
O         19.48849        10.39447        -1.62336
H         20.05558         9.79809        -2.17873
H          0.40698         1.54465         0.92927
H          0.34034         3.96945         0.48139
H          2.57109         0.29897         0.79374
H          0.27686         5.75561        -0.19437
H          0.21226         8.15701        -0.69917
H          0.17290        10.17792        -1.14898
H          0.06939        12.51096        -0.61957
H          0.28833        14.52040        -1.20726
H          0.35862        16.97708        -1.42047
H          1.55626        19.15687        -1.28177
H          4.96514         0.28811         0.46292
H          3.64768        20.41086        -0.92074
H          7.33161         0.30211         0.65276
H          6.01370        20.45837        -0.18695
H          9.84053         0.26687         0.87101
H          8.51422        20.49697         0.54104
H         12.06010         1.37912         2.46295
H         11.00953        20.47635         0.73554
H         14.58176         0.20226         0.68216
H         13.56486        20.45497         0.71181
H         16.43521         1.23384        -1.34436
H         15.95787        20.45504         0.24168
H         19.48805         0.26793        -0.98960
H         18.25336        20.36993        -0.68165
H         21.54957         1.45357        -1.58611
H         22.63146         3.74639        -2.52654
H         22.93320         6.07764        -1.91957
H         23.19936         7.92766        -0.31536
H         23.28287        10.27683         0.32205
H         23.25201        12.43925        -0.59429
H         23.22564        14.86329        -0.60209
H         22.98920        16.71504        -1.23627
H         20.68089        20.36753        -1.35905
H         22.83015        19.15796        -1.60045
