         621
 CSIRO Nanostructure Databank - Neutral Graphene Oxide Data Set
C          6.32962        31.94885         2.33565
C          6.38715        33.28699         2.47245
C          8.73178        27.55381         2.06537
C          8.67377        28.95667         1.92477
C          7.58860        29.73635         2.27851
C          8.85168        31.84604         2.16593
C          7.48959        31.15371         1.78138
C          8.79121        33.32227         1.93971
C          7.61110        34.05199         2.18832
C          8.93626        36.21848         2.13421
C          7.63848        35.44994         2.24889
C          8.80524        37.62685         1.63464
C         11.11868        23.21974         1.65099
C         11.10035        24.65629         1.60458
C          9.90748        25.38553         1.80212
C         11.09384        27.48094         1.34089
C          9.89773        26.79930         1.73409
C         11.17044        28.97377         1.43852
C          9.80108        29.64895         1.12405
C         11.07854        31.76854         0.98679
C          9.96926        31.13397         1.45081
C         11.05159        33.24231         0.85064
C         10.09385        34.02453         1.72130
C         11.16299        36.19615         0.86271
C          9.88107        35.45493         1.19961
C         11.14557        37.65519         0.76226
C          9.88666        38.35100         1.15467
C         10.58707        40.75964         0.85788
C          9.61151        39.75279         0.94160
C         10.53334        42.07218         0.42832
C         13.54752        18.92141         1.39378
C         13.50067        20.32392         1.24967
C         12.30226        21.04992         1.43537
C         13.57860        23.16555         1.33016
C         12.27661        22.46709         1.44272
C         13.59458        24.67935         1.34118
C         12.30368        25.38292         1.33863
C         13.57059        27.58237         1.07801
C         12.27964        26.77560         1.12500
C         13.45701        28.92604         0.37057
C         12.27990        29.63693         0.64140
C         13.40540        31.72180         0.04679
C         12.24562        31.04009         0.47881
C         13.55522        33.17705         0.42355
C         12.25360        33.96828         0.39312
C         13.32872        36.06422        -0.31406
C         12.27062        35.45644         0.50635
C         13.24140        37.52507        -0.62357
C         12.24200        38.28403         0.14990
C         13.22240        40.43855        -0.74268
C         12.47844        39.70484         0.15974
C         12.88862        41.90999        -0.83981
C         11.77156        42.68438        -0.14644
C         13.32083        44.68286        -0.05873
C         12.11316        44.07114         0.22484
C         13.49099        46.07083         0.27067
C         16.11822        14.72413         1.83516
C         16.03325        16.09936         1.50018
C         14.81260        16.81084         1.52666
C         15.95269        18.89409         0.82464
C         14.75186        18.19478         1.24301
C         15.93516        20.28263         0.60868
C         14.72182        21.03055         0.87264
C         15.91173        23.12848         0.29792
C         14.73267        22.40849         0.81195
C         15.92248        24.62022         0.29542
C         14.75844        25.40627         0.78310
C         15.86787        27.40172        -0.09227
C         14.73003        26.74772         0.60406
C         15.80051        28.82681        -0.52528
C         14.57370        29.59548        -0.19311
C         15.73915        31.71776        -0.87068
C         14.56666        31.00484        -0.33791
C         15.76359        33.08623        -0.95716
C         14.73416        33.89278        -0.24338
C         15.72472        36.12587        -1.12044
C         14.63151        35.36958        -0.48325
C         15.71627        37.48637        -1.27001
C         14.42446        38.23809        -1.23136
C         15.71627        40.39193        -1.63770
C         14.37116        39.72171        -1.45394
C         15.77393        41.69483        -2.04016
C         13.96875        42.78534        -1.34651
C         15.53692        44.73428        -1.45027
C         14.33339        44.00718        -0.88236
C         15.62156        46.17987        -1.02904
C         14.56663        46.79692        -0.18459
C         15.78299        48.95989        -0.16302
C         14.61693        48.21679        -0.04537
C         15.62722        50.38108        -0.10131
C         18.34847        10.37957         1.43762
C         18.45234        11.73253         1.83726
C         17.33754        12.60648         1.98323
C         18.56402        14.82544         1.73855
C         17.34916        14.02981         1.92319
C         18.47400        16.13721         1.15563
C         17.22965        16.79686         1.08555
C         18.35844        18.82856         0.25314
C         17.18124        18.16784         0.69918
C         18.33975        20.24247         0.00425
C         17.14344        20.97361         0.24410
C         18.37313        23.05337        -0.20656
C         17.18400        22.38829         0.13155
C         18.47375        24.52415        -0.06237
C         17.25620        25.30687         0.33357
C         18.43958        27.52426        -0.29557
C         17.21617        26.80005         0.15412
C         18.26578        28.87279        -0.93673
C         17.06487        29.53318        -0.89157
C         18.22108        31.72558        -1.36810
C         16.88068        30.92656        -1.50883
C         18.13758        33.09998        -2.05399
C         16.86343        33.84658        -1.63011
C         18.23233        36.02050        -1.22643
C         16.91950        35.33545        -1.50832
C         18.17642        37.50318        -1.50916
C         16.98554        38.20345        -1.44142
C         18.16630        40.37280        -1.51278
C         16.97477        39.66333        -1.49102
C         18.23321        41.82610        -1.80530
C         16.95555        42.57809        -2.04437
C         18.04516        44.77859        -1.83707
C         16.86051        44.06105        -1.78430
C         18.09882        46.26704        -1.79008
C         16.89979        46.95983        -1.17602
C         18.43145        48.83122        -0.47443
C         17.09776        48.12626        -0.20809
C         18.58013        50.14071         0.13650
C         16.62144        51.20152         0.42854
C         18.10624        53.17143         0.59682
C         16.80623        52.58575         0.43419
C         18.17761        54.50795         0.97107
C         20.62350         6.13783         0.43018
C         20.68418         7.51610         0.48327
C         19.50624         8.27197         0.85178
C         20.73604        10.44894         0.65554
C         19.50472         9.64405         1.02752
C         20.92959        11.58640         1.62865
C         19.79941        12.18565         2.12801
C         21.03071        14.97808         1.59976
C         19.83208        14.39664         2.12133
C         20.92140        16.16244         0.81709
C         19.65841        16.80422         0.71340
C         20.76518        18.71211        -0.38475
C         19.59129        18.11641         0.17642
C         20.65546        20.10144        -0.89387
C         19.50783        20.91269        -0.43935
C         20.77341        23.02827        -0.89874
C         19.55210        22.32226        -0.53663
C         20.80557        24.47160        -0.92585
C         19.66459        25.23514        -0.55361
C         20.86140        27.40699        -1.20896
C         19.69831        26.70647        -0.49675
C         20.71842        28.76455        -1.71403
C         19.44278        29.47410        -1.62348
C         20.67335        31.68593        -2.23505
C         19.38747        30.93655        -1.96831
C         20.68362        33.20244        -2.22745
C         19.42547        33.92524        -1.90266
C         20.70862        36.04281        -1.82627
C         19.45856        35.28124        -1.71967
C         20.70934        37.42600        -1.72458
C         19.47523        38.18186        -1.38580
C         20.68795        40.47389        -1.52136
C         19.45231        39.69449        -1.30015
C         20.72376        41.84471        -1.50075
C         19.44588        42.61086        -1.40167
C         20.66643        44.84737        -1.73186
C         19.37347        44.10410        -1.57944
C         20.71751        46.22103        -1.71956
C         19.43626        47.01309        -1.96961
C         20.66403        49.20824        -1.61863
C         19.45694        48.33405        -1.22829
C         20.81576        50.45438        -0.66139
C         19.50798        51.07060        -0.23296
C         20.56497        53.41874        -0.17405
C         19.33048        52.52973        -0.00873
C         20.58228        54.69914         0.54653
C         19.40268        55.24664         1.07351
C         20.57347        57.14468         2.14555
C         19.40308        56.48623         1.80790
C         20.61836        58.36597         2.89233
C         23.05145         3.24042         0.34711
C         21.85356         3.89456         0.37434
C         23.10919         6.05138        -0.17362
C         21.77319         5.31869         0.02881
C         23.12115         7.50509         0.04611
C         21.96054         8.21124         0.28663
C         23.21514        10.31142         0.59883
C         22.00851         9.65322         0.50757
C         23.33312        11.68683         1.06488
C         22.23496        12.16001         1.75876
C         23.39983        14.72762         0.89553
C         22.29158        14.34862         1.68990
C         23.32357        16.01423         0.27569
C         22.08816        16.73498         0.24421
C         23.19150        18.58632        -1.00199
C         21.97593        18.01151        -0.39595
C         23.17538        20.04338        -1.44024
C         21.89803        20.83046        -1.35874
C         23.16105        22.97886        -1.53231
C         21.95117        22.31102        -1.23057
C         23.18507        24.39856        -1.65919
C         21.99705        25.11752        -1.39505
C         23.19316        27.24399        -2.24126
C         21.92807        26.53665        -1.77768
C         23.22157        28.74770        -2.29440
C         21.91239        29.49637        -2.16550
C         23.18256        31.69218        -1.86507
C         21.92603        30.96535        -2.02760
C         23.22137        33.17590        -2.05845
C         21.97562        33.92338        -2.08281
C         23.20289        36.06656        -2.23868
C         21.95067        35.31174        -2.04771
C         23.25181        37.50703        -1.91785
C         21.94628        38.21932        -1.94194
C         23.19616        40.43050        -1.48300
C         21.92555        39.71539        -1.80490
C         23.19718        41.91176        -1.64274
C         21.97393        42.57189        -1.64756
C         23.23034        44.75188        -1.95527
C         21.90493        44.02573        -1.91734
C         23.24991        46.25745        -1.92489
C         21.96808        47.01274        -1.76811
C         23.24254        49.18101        -1.51807
C         21.97460        48.39082        -1.61906
C         23.21530        50.67391        -1.20014
C         21.90731        51.41472        -1.11237
C         23.14349        53.39106        -0.02118
C         21.89773        52.92257        -0.76097
C         23.14050        54.63060         0.59460
C         21.86535        55.38424         0.73402
C         23.09865        56.97163         2.31662
C         21.84785        56.62715         1.59699
C         23.09033        58.23649         3.13717
C         21.81662        58.98199         3.25505
C         23.11615        60.88102         4.09010
C         21.89036        60.29399         3.80012
C         24.29809         3.92463         0.17133
C         25.60651         6.02216         0.12099
C         24.36208         5.29772         0.02476
C         25.67672         7.39703         0.08788
C         24.43217         8.21929        -0.17850
C         25.76928        10.24152         0.70655
C         24.46383         9.53072         0.56183
C         25.76595        11.72216         0.68132
C         24.56970        12.45361         0.88831
C         25.76108        14.50762         0.20048
C         24.58096        13.88631         0.72059
C         25.75417        15.91461        -0.17824
C         24.52552        16.63205        -0.21385
C         25.68894        18.67311        -0.94949
C         24.49472        17.96377        -0.70145
C         25.66180        20.08876        -1.28914
C         24.45452        20.76590        -1.44163
C         25.72595        22.95033        -1.78202
C         24.39715        22.19661        -1.78332
C         25.69556        24.42769        -1.70655
C         24.43676        25.12163        -1.93010
C         25.70780        27.26829        -2.17545
C         24.45049        26.49981        -2.11084
C         25.68593        28.74953        -2.03187
C         24.50958        29.43550        -2.02127
C         25.77287        31.62142        -1.91774
C         24.47648        30.90581        -1.78737
C         25.72618        33.09146        -2.10065
C         24.44395        33.82456        -2.08058
C         25.74594        36.03075        -1.87524
C         24.52165        35.29105        -2.26942
C         25.71998        37.45425        -1.75828
C         24.45055        38.17172        -1.81678
C         25.72148        40.39622        -1.74933
C         24.45949        39.63729        -1.52688
C         25.72083        41.85797        -1.49601
C         24.47175        42.61530        -1.62939
C         25.73686        44.75812        -1.51580
C         24.47496        44.00826        -1.67560
C         25.72265        46.18600        -1.12211
C         24.55740        46.95209        -1.58061
C         25.60091        49.00809        -0.48083
C         24.53561        48.43100        -1.35602
C         25.53235        50.47494        -0.18624
C         24.42019        51.33647        -0.66236
C         25.60298        53.33036         0.20337
C         24.38679        52.66419        -0.17657
C         25.61881        54.61967         0.74302
C         24.36617        55.25777         1.04375
C         25.58677        57.06668         2.20664
C         24.36939        56.43845         1.80255
C         25.57136        58.27906         2.93051
C         24.37902        58.92963         3.32202
C         24.34349        60.23568         3.83248
C         26.92407         8.11658         0.15280
C         28.21420        10.23290         0.24799
C         26.99255         9.49109         0.31959
C         28.22099        11.61699         0.25724
C         26.97633        12.37464         0.35790
C         28.19240        14.37460        -0.44635
C         26.95389        13.75445         0.06464
C         28.19910        15.85290        -0.71885
C         26.93788        16.59986        -0.54184
C         28.18283        18.72000        -0.92894
C         26.93404        17.99141        -0.80291
C         28.15741        20.09544        -1.10824
C         26.92114        20.81012        -1.30786
C         28.11566        22.94866        -1.01648
C         26.93857        22.20939        -1.41842
C         27.99182        24.41176        -0.78812
C         26.85177        25.11654        -1.41961
C         28.14376        27.33092        -1.25057
C         26.97785        26.54556        -1.73291
C         28.15991        28.73738        -1.39302
C         27.03411        29.45417        -2.13346
C         28.28540        31.67391        -1.77755
C         26.95153        30.94922        -1.86794
C         28.17848        33.13638        -1.39988
C         27.01871        33.88097        -1.87696
C         28.11031        36.01212        -1.20396
C         26.93153        35.33164        -1.61548
C         28.11843        37.44036        -1.18455
C         26.93102        38.14269        -1.49011
C         28.23026        40.32520        -1.22570
C         27.00511        39.61502        -1.63982
C         28.19481        41.74582        -1.08367
C         26.93331        42.47076        -1.24265
C         28.05152        44.61298        -0.46296
C         26.97429        43.94804        -1.22936
C         28.04085        46.07225        -0.31005
C         26.87595        46.82016        -0.58351
C         28.00091        48.90260         0.17477
C         26.88114        48.26272        -0.30149
C         28.03954        50.35734         0.45836
C         26.78988        51.14771         0.26794
C         28.20007        53.28138         0.25030
C         26.88497        52.61470         0.01818
C         28.20994        54.75873         0.61514
C         26.85792        55.28801         1.08176
C         26.82358        56.47161         1.78008
C         29.46209        12.35198         0.10296
C         30.73754        14.39336        -0.62853
C         29.47415        13.67677        -0.20715
C         30.68904        15.89915        -0.45808
C         29.47021        16.59760        -0.63712
C         30.67059        18.71144        -0.66851
C         29.45074        18.00723        -0.74432
C         30.71228        20.15796        -0.94934
C         29.42676        20.88539        -1.35289
C         30.46271        23.03147        -0.23212
C         29.30909        22.30539        -0.81235
C         30.49700        24.50239        -0.27594
C         29.22876        25.21012        -0.46394
C         30.47054        27.35775        -0.43517
C         29.26531        26.65858        -0.72890
C         30.44240        28.78959        -0.46047
C         29.28922        29.45105        -0.93115
C         30.30892        31.67234        -0.14569
C         29.18335        30.92655        -0.80378
C         30.39798        33.13015        -0.31520
C         29.26852        33.83073        -0.84018
C         30.47205        35.96856        -0.50351
C         29.27949        35.27533        -0.84826
C         30.50332        37.40872        -0.61033
C         29.35491        38.13817        -0.91361
C         30.61133        40.29547        -0.62996
C         29.39538        39.59674        -0.93725
C         30.62233        41.72322        -0.57547
C         29.39145        42.42524        -0.76126
C         30.58693        44.63690        -0.27884
C         29.33331        43.84039        -0.33419
C         30.52762        46.00403         0.23191
C         29.22215        46.65873         0.34189
C         30.52261        48.87013         0.63917
C         29.21943        48.16714         0.57414
C         30.53940        50.28054         0.61650
C         29.35608        51.06157         0.50442
C         29.38518        52.44606         0.53798
C         31.85829        16.61970        -0.22861
C         33.03186        18.76988         0.11830
C         31.86770        18.04016        -0.27798
C         33.05377        20.17203         0.16131
C         31.91637        20.90210        -0.44908
C         33.01061        23.11726         0.11170
C         31.76947        22.32829        -0.03855
C         32.95411        24.49731         0.08192
C         31.69110        25.21640        -0.10501
C         32.96071        27.43171        -0.10306
C         31.66911        26.64710        -0.12624
C         32.78791        28.84826         0.37212
C         31.58847        29.52945         0.05631
C         32.63132        31.64641         0.74431
C         31.52018        30.92978         0.23298
C         32.63253        33.09242         0.76235
C         31.53871        33.82161         0.16110
C         32.74416        35.97677         0.51570
C         31.58142        35.23803        -0.00155
C         32.99091        37.35233         0.01461
C         31.80088        38.11425        -0.50303
C         33.00466        40.25592        -0.03816
C         31.82067        39.58649        -0.38609
C         33.01077        41.68097         0.07508
C         31.84017        42.39658        -0.22548
C         33.02897        44.57249         0.42067
C         31.89503        43.87403        -0.21391
C         32.94614        45.95711         0.65004
C         31.72206        46.69116         0.54396
C         31.69673        48.11037         0.74173
C         34.13647        20.93526         0.62718
C         35.31377        23.05803         0.97369
C         34.19290        22.36816         0.52798
C         35.44810        24.49623         0.77162
C         34.19538        25.27231         0.25847
C         35.16855        27.38450         1.12807
C         34.11153        26.70729         0.54403
C         35.07098        28.80847         1.39944
C         33.85604        29.52882         1.00515
C         34.71852        31.65531         2.11323
C         33.75485        30.91770         1.21731
C         34.93998        33.07250         1.63364
C         33.84108        33.76308         1.15909
C         35.20379        35.93602         1.24517
C         33.90661        35.23895         1.08952
C         35.25707        37.37605         1.06362
C         34.18672        38.06499         0.50565
C         35.48865        40.26639         0.80918
C         34.25654        39.49591         0.19569
C         35.29976        41.68869         1.05664
C         34.18461        42.38777         0.60435
C         34.13817        43.80013         0.79644
C         36.42510        25.27641         1.51706
C         37.41557        27.39824         2.19907
C         36.34067        26.65611         1.61198
C         37.34779        28.77223         2.36059
C         36.11229        29.46305         2.04644
C         37.27886        31.63137         2.72682
C         35.99653        30.88456         2.44066
C         37.34606        33.07927         2.48508
C         36.30250        33.71785         1.60792
C         37.51570        35.91599         2.06448
C         36.29871        35.22645         1.67964
C         37.53645        37.32230         2.03545
C         36.44623        38.08202         1.52517
C         36.46730        39.47947         1.53797
C         38.52663        29.50969         2.75856
C         39.74231        31.64435         3.11732
C         38.55245        30.87990         2.82254
C         39.72393        33.00667         3.13056
C         38.54970        33.75694         2.70997
C         38.62775        35.16343         2.51467
O         23.83647        39.97096        -0.23279
O         22.29744         5.63087        -1.31744
O         15.56604        27.70611        -1.48969
O         32.80229        37.52719        -1.42611
O         22.55484        29.20881        -3.51435
O         14.59626        42.27681        -2.47556
O         20.82403        27.26734         0.26804
O         15.09801        45.79259        -2.34749
O         20.64450        32.45938        -3.49757
O         16.55351        34.72641        -2.79129
O         22.52677        51.25371        -2.39566
O         26.76976        44.50998        -2.56007
O         25.03943        49.47870         0.79606
O         19.03876        30.00576        -3.01351
O         19.93407        13.29182         2.98052
O         19.56270        53.30899        -1.23555
O         28.43209        43.97415         0.81855
O         26.57471        33.49991        -3.23594
O         17.16349        47.08096        -2.58081
O         17.62816        50.47626         1.10192
O         29.05201        31.30869         0.59173
O         19.30470        43.44750        -0.21617
O         17.83625        42.20298        -3.17031
O         36.37719        31.17123         3.83188
O         28.21039        24.84358         0.59743
O         31.42644        44.47526        -1.47084
O         15.62239        23.92091        -0.95517
O         15.25638        34.84814         0.76347
O         26.45485        40.03661        -2.95264
O         14.03610        38.81769        -2.54101
O         23.80817        31.28050        -0.53133
O         27.68680        53.03289        -1.13683
O         31.79764        20.58238        -1.87240
O         20.91862        20.33804        -2.32323
O         30.85671        22.46741         1.10751
O         18.01531        27.53951         1.11633
O         13.90139        23.92635         2.56163
O         25.12026         9.57774         1.86461
O         23.89011        35.75473        -3.49732
O         35.37411        39.89911        -0.61720
O         25.09329        22.50366        -3.03101
O         13.78353        27.94541         2.45225
O         12.72280        36.53530        -1.57000
O         19.56441        38.88208        -0.06269
O         24.16404        46.67981        -2.97401
O         28.11735        14.88450        -1.84363
O         22.22453        26.71106        -3.19155
O         26.67965        26.79238        -3.16643
O         22.57461        44.31001        -3.19442
O         32.88606        35.87184         1.97569
O         22.41885        13.28253         2.58807
O         24.24567        49.09753        -2.60768
O         11.68631        42.33177        -1.60613
O         20.40549        49.63230        -2.91311
O         35.28422        24.90509        -0.64191
O         18.14661        24.88229         1.38489
O         11.89387        40.38588         1.22457
O          9.45322        29.56376        -0.20091
O         21.87278        39.10796        -3.14282
O         21.94362        56.74276         0.14934
O         27.19497        50.76169         1.61225
O         23.09427        18.96422        -2.41866
O         28.97122        47.25011         1.67557
O         23.00257        56.90031         3.77181
O         11.19775        33.59725        -0.57353
O         18.49493        31.94949         0.02553
H         18.32395        31.12520         0.52968
O         22.00470        53.66056        -2.00376
H         22.31581        53.02879        -2.69645
O          9.11263        31.65687         3.59763
H          9.56719        30.79102         3.70959
O         16.50339        30.75886        -2.87746
H         17.28521        30.41256        -3.37308
O         27.38450        29.37611        -3.54817
H         27.32795        28.42251        -3.80736
O         33.36469        27.55198        -1.52535
H         33.81255        26.71699        -1.78390
O         33.97462        31.79977         3.36802
H         34.64840        31.80825         4.09005
O         24.46672         8.58167        -1.59668
H         24.29397         7.76820        -2.11710
O          7.37747        31.18321         0.35003
H          8.07640        30.58279        -0.05261
O         29.46931        21.04151        -2.80328
H         30.42035        21.06706        -3.06233
O         10.74039        34.05530         3.04120
H         10.51136        33.21061         3.50017
O         18.03939        32.81043        -3.45551
H         17.60610        33.57928        -3.89194
O         20.44474        11.06828        -0.64402
H         20.43246        10.35344        -1.31530
O         17.21063        47.50897         1.10345
H         17.27470        48.23698         1.75964
O         21.37723        49.91187         0.58432
H         20.68477        49.39070         1.04526
O         13.86101        33.08328         1.85013
H         14.49769        33.80520         2.06571
O         28.94196        31.61579        -3.06885
H         28.30295        31.94102        -3.74102
O         36.79517        33.40530         0.23250
H         37.62090        33.91918         0.09607
O         30.90719        14.13227        -2.03774
H         30.06193        14.38881        -2.47501
O         28.63427        55.51465        -0.52698
H         28.22780        55.09195        -1.31606
O         18.32507        35.95598         0.23903
H         18.93664        36.66305         0.54084
O         19.52182        47.26266        -3.38811
H         19.87317        48.19322        -3.53157
O          9.16030        35.34926        -0.04815
H          9.73152        34.84740        -0.68019
O         11.48002        29.23747         2.82809
H         12.39557        28.80828         2.95575
O          9.46976        36.33542         3.48260
H          9.98464        35.51056         3.67806
H          5.39051        31.41582         2.55047
H          5.50592        33.84860         2.81740
H          7.80819        27.00651         2.31578
H          6.86317        29.36608         3.02384
H          6.72674        35.98970         2.55071
H          7.85906        38.16058         1.82017
H         10.16525        22.69492         1.81587
H          8.98214        24.85021         2.06192
H          8.55314        40.04922         0.88188
H          9.57951        42.56636         0.19249
H         12.63365        18.38341         1.68799
H         11.36804        20.49759         1.61881
H         11.37630        44.62759         0.82359
H         12.69250        46.57644         0.83393
H         15.18430        14.17037         2.01823
H         13.89411        16.29057         1.83794
H         13.68225        48.73845         0.21378
H         14.66945        50.81179        -0.42999
H         17.36493         9.88401         1.43544
H         16.34113        12.13786         1.91854
H         15.95385        53.25617         0.24632
H         17.25591        54.99974         1.31750
H         19.69333         5.62598         0.72296
H         18.58053         7.70534         1.04252
H         18.43955        56.86662         2.17821
H         19.66700        58.87030         3.12113
H         23.08361         2.16373         0.56753
H         20.93377         3.36675         0.66637
H         23.13483        61.90299         4.49427
H         20.96095        60.85821         3.96398
H         25.22972         3.35050         0.28049
H         26.52824         5.43759         0.26929
H         26.53142        58.77601         3.13819
H         25.28532        60.77539         4.00723
H         27.85889         7.54546         0.03745
H         29.16090         9.68884         0.10996
H         28.96275        54.93066         1.42810
H         27.76607        56.97841         2.03624
H         30.40894        11.79584         0.18090
H         31.62850        13.97000        -0.10103
H         31.50752        50.79928         0.68135
H         30.34713        52.95865         0.69250
H         32.79647        16.08547        -0.01729
H         33.90724        18.20563         0.47298
H         33.83632        46.48341         1.02531
H         32.65534        48.63326         0.87355
H         35.01927        20.41471         1.02799
H         36.11734        22.51853         1.49660
H         36.07335        42.22658         1.62528
H         35.00554        44.29371         1.25927
H         37.23905        24.74641         2.03422
H         38.33748        26.86289         2.46996
H         38.43666        37.85250         2.37945
H         37.24594        40.00583         2.10979
H         39.45199        28.93916         2.93132
H         40.67124        31.09960         3.34153
H         40.63898        33.56921         3.36598
H         39.56077        35.68674         2.76983
