         261
 CSIRO Nanostructure Databank - Neutral Graphene Oxide Data Set
C        -10.81975         0.95879        -1.32207
C        -10.06384         1.49649        -0.12181
C         -8.67844         0.87671        -0.18790
C         -7.49106         1.63683         0.25264
C         -6.28038         0.83461         0.66371
C         -5.15005         1.53121         1.33819
C         -3.84118         0.82469         1.55061
C         -2.56309         1.57692         1.73276
C         -1.23568         0.83103         1.74653
C          0.01365         1.52761         1.32076
C          1.33345         0.78396         1.25668
C          2.50305         1.42222         0.56902
C          3.69520         0.57342         0.20603
C          4.94481         1.27613        -0.24473
C          6.27470         0.56196        -0.35175
C          7.48455         1.19141         0.30995
C          8.82563         0.52520         0.01179
C         10.11635         1.33862        -0.18875
C         11.33540         0.55822        -0.54680
C         -9.96756         3.01196        -0.08707
C         -8.93184         3.68693         0.45071
C         -7.74310         2.94558         1.07271
C         -6.43969         3.76875         1.05754
C         -5.14816         3.03854         1.28682
C         -3.87513         3.80629         1.56329
C         -2.55259         3.09028         1.58609
C         -1.41066         3.65612         0.76090
C         -0.15898         2.82667         0.56379
C          1.06128         3.48551        -0.05160
C          2.31932         2.62931        -0.35806
C          3.64032         3.47268        -0.41057
C          4.96317         2.78632        -0.28266
C          6.18843         3.49839         0.25592
C          7.48463         2.73680         0.33237
C          8.76319         3.57054         0.06075
C          9.93312         2.75016        -0.42923
C         -9.03035         5.19148         0.68751
C         -7.71416         5.95450         0.76790
C         -6.51041         5.25634         1.30287
C         -5.20696         6.00945         1.39137
C         -3.94287         5.24009         1.09560
C         -2.64895         5.94834         0.83102
C         -1.40634         5.15555         0.48723
C         -0.13260         5.86951         0.13646
C          1.06618         4.98485        -0.17576
C          2.35502         5.67571        -0.47709
C          3.61243         4.94438        -0.11274
C          4.89407         5.70324         0.04628
C          6.28845         5.05856         0.26397
C          7.36918         5.57692        -0.72646
C          8.51276         4.78341        -0.85335
C         -7.66858         7.25489         0.38367
C         -6.46519         8.10698         0.52404
C         -5.19257         7.46264         0.99599
C         -3.87298         8.13670         0.65776
C         -2.55520         7.45156         0.85515
C         -1.24972         8.19821         0.42804
C          0.05484         7.33259         0.56369
C          1.24653         8.05713        -0.12258
C          2.36921         7.14713        -0.59172
C          3.69514         7.84181        -0.75329
C          4.93348         7.17109        -0.25714
C          6.23301         7.84734        -0.72352
C          7.25004         6.90348        -1.18083
C         -6.36233         9.42581        -0.17163
C         -5.17951         9.94414        -0.54665
C         -3.95000         9.06378        -0.55437
C         -2.65030         9.67745        -1.01519
C         -1.41556         9.11657        -0.79017
C         -0.19801         9.75178        -1.29891
C          1.02580         9.20661        -1.06960
C          2.28949         9.86491        -0.52700
C          3.65294         9.31342        -0.97677
C          4.98202         9.99776        -1.02772
C          6.12460         9.27923        -1.15130
C        -10.60274        -0.27938        -1.79202
C         -9.74416        -1.30089        -1.06733
C         -8.61468        -0.61828        -0.28730
C         -7.29503        -1.31512        -0.21597
C         -6.04950        -0.42433        -0.18013
C         -4.77216        -1.18648         0.19051
C         -3.68830        -0.57207         1.01356
C         -2.56384        -1.40341         1.56284
C         -1.26633        -0.68467         1.87300
C          0.04755        -1.46648         1.83240
C          1.36370        -0.70072         1.63944
C          2.63518        -1.49618         1.40273
C          3.85763        -0.78161         0.83943
C          5.11543        -1.53128         0.51170
C          6.25687        -0.92059        -0.25508
C          7.54760        -1.69864        -0.28486
C          8.82575        -0.91019        -0.45361
C         10.13175        -1.63393        -0.52310
C         11.36853        -0.79175        -0.48017
C         -9.11112        -2.38200        -1.96415
C         -8.39083        -3.45856        -1.18074
C         -7.18713        -2.56194        -1.09567
C         -5.84453        -3.26607        -1.01478
C         -4.71945        -2.64503        -0.21521
C         -3.77969        -3.54227         0.57996
C         -2.60641        -2.90873         1.32155
C         -1.31913        -3.70417         1.43935
C          0.01192        -2.97853         1.58989
C          1.27664        -3.73058         1.15788
C          2.59867        -3.00946         1.21988
C          3.80335        -3.64229         0.55965
C          5.14713        -3.00891         0.79630
C          6.40066        -3.80508         0.65030
C          7.60617        -3.15191         0.04025
C          8.90437        -3.88383         0.04669
C         10.22460        -3.14296        -0.21089
C         -8.35258        -4.76228        -1.51339
C         -7.09097        -5.58107        -1.69057
C         -5.79011        -4.78875        -1.31966
C         -4.55214        -5.54645        -0.88859
C         -3.74831        -5.02715         0.29924
C         -2.60346        -5.90951         0.81320
C         -1.30934        -5.21131         1.16251
C         -0.07848        -5.85123         0.58563
C          1.15828        -5.03109         0.37602
C          2.42057        -5.75609        -0.07915
C          3.74730        -5.03780         0.04261
C          5.03602        -5.81965        -0.15042
C          6.30780        -5.33121         0.57056
C          7.57924        -6.00206         0.05436
C          8.83535        -5.24560         0.03632
C         -7.19853        -6.93570        -0.96639
C         -6.32407        -7.92465        -1.27084
C         -4.30071        -6.97525        -1.29872
C         -3.44739        -7.91450        -0.56228
C         -2.67777        -7.45421         0.65157
C         -1.29055        -8.14894         0.60665
C          0.04272        -7.36788         0.73802
C          1.11004        -8.02891        -0.18594
C          2.38928        -7.23345        -0.37415
C          3.67731        -7.95294        -0.03333
C          4.98523        -7.29276        -0.37904
C          6.26041        -8.14652        -0.42732
C          7.52984        -7.33308        -0.22767
C         -6.19323        -9.29800        -0.78930
C         -5.00601        -9.96006        -0.66627
C         -3.65749        -9.39387        -0.64793
C         -2.53293       -10.14105        -0.47948
C         -1.25091        -9.48687        -0.07421
C          0.07076        -9.75643        -0.77585
C          1.27578        -9.50080         0.09207
C          2.44055       -10.15463         0.26979
C          3.68343        -9.36457         0.48461
C          5.00411       -10.03572         0.64679
C          6.16838        -9.42544         0.37701
O         -4.63647        -4.89316        -2.20305
O         -2.22158        -3.52106         2.56234
O         -8.09328         2.53995         2.33726
O         -5.98823         8.26216         1.91564
O          4.49528         3.26886        -1.58160
O         -8.17673        -1.31978         0.92831
O          3.59033        -8.23119         1.41748
O         -4.71232        -2.62848        -1.67260
O          9.42028        -1.21767        -1.74611
O          7.36972        -2.70808        -1.34155
O         -3.07987         3.72802         2.78098
O          0.40551        -8.45311        -1.44084
O          0.15378        -2.41431         2.91351
O          3.67974        -3.86729        -0.87229
O         -3.14925         8.27402         1.90342
O         -1.25737         2.78027        -0.39884
O          0.14926        -5.14141        -0.67302
O          5.77773         7.83345         0.68556
O          6.72483         3.07442         1.52656
O          0.72149         4.12833        -1.30616
O         -1.04270         9.29429         1.27721
O          1.98002         9.08183         0.72415
O         -5.95350         5.68481         2.58572
O         -3.58690         5.51191        -0.27078
O          3.67128         8.38707        -2.11872
O         -2.17489        -1.10429         2.91877
O         -3.60741        -0.52029        -0.44345
O         -7.81764         1.62694        -1.13085
O          2.34718        -6.29361        -1.45036
O         -5.27367        -7.55252        -2.14808
O          9.67064         0.81549         1.14363
O          6.25297        -0.22943        -1.56178
O          2.20140         6.31292        -1.78262
O          5.06440        -6.35528        -1.50237
O         -3.34212         1.11141         2.87469
O         -1.11367         5.60662        -0.88405
O          4.96369        -0.79740         1.77985
O          4.02123         0.66803        -1.19203
O         -2.97041        -7.23828        -1.78437
O          2.29239        -0.99516         2.71352
O         -2.11080        -5.81833         2.19436
O          5.95986        -3.32292         1.95414
O         -5.59012         3.44605        -0.07385
O         -4.58454        -4.48415         1.36443
O         -1.18106        -9.37601         1.39448
O          4.04965         5.37228         1.20663
O          6.25604        -5.87023         1.85953
O         -6.18488         0.80935         2.10007
O          2.32838         1.60358         1.98169
O          2.15896        -3.84274         2.31909
O         -0.39784         1.53373         2.72128
O          6.78617         5.49941         1.46560
O         -7.73643        -1.97834        -2.41017
O        -10.61211        -2.00008        -0.15268
H        -10.92494        -1.35092         0.51495
O         -3.42368        -7.93762         1.77308
H         -3.01133        -7.57071         2.58704
O          6.35735        -8.61222        -1.80647
H          6.16061        -7.83673        -2.38066
O          2.06020         2.05692        -1.63813
H          1.74751         2.77567        -2.23400
O         -5.85351         0.04594        -1.52212
H         -5.41049        -0.66314        -2.04243
O        -10.71139         1.04290         1.08918
H        -10.19122         1.39167         1.84884
O         -7.05738        -5.81718        -3.10788
H         -6.15902        -6.15641        -3.32838
O         11.08898        -3.30269         0.92151
H         10.59359        -3.09818         1.74106
O          0.33148         7.27472         1.96665
H          0.13847         8.18404         2.31058
O         -9.89373         5.77763        -0.28157
H         -9.49249         5.66258        -1.16729
O         -4.21020         8.07636        -1.62227
H         -4.31152         8.55600        -2.47154
O          0.49898        -7.51006         2.09155
H          0.26236        -8.41748         2.39278
O          7.23729         0.75923         1.67694
H          7.86191         1.22833         2.27297
O          9.12847         4.23004         1.29184
H          8.29270         4.71708         1.60383
H         12.33009        -1.31417        -0.59485
H         12.27140         1.12245        -0.67372
H         10.66127         3.25126        -1.08683
H          9.43949         5.30375        -1.15442
H          7.83521         7.20695        -2.06604
H          7.06986         9.80377        -1.35916
H          5.00448        11.08555        -1.19395
H          2.27026        10.96499        -0.35675
H         -0.28844        10.74604        -1.76521
H         -2.73522        10.44894        -1.80069
H         -5.12123        10.95518        -0.97842
H         -7.28143        10.02731        -0.25227
H         -8.57758         7.70837        -0.04363
H         -9.53377         5.31869         1.68653
H        -10.83807         3.58319        -0.45053
H        -11.52245         1.62893        -1.84181
H        -11.16323        -0.63354        -2.67188
H         -9.75231        -2.70512        -2.81480
H         -9.25845        -5.22256        -1.93840
H         -8.04165        -7.11725        -0.28504
H         -7.12035        -9.85262        -0.57608
H         -5.05539       -11.02961        -0.40404
H         -2.56904       -11.24199        -0.49256
H          0.07203       -10.62042        -1.47743
H          2.51192       -11.24659         0.15784
H          5.00383       -11.02243         1.13569
H          7.11463        -9.94562         0.58868
H          8.45648        -7.83959        -0.54543
H          9.76243        -5.83139        -0.07373
H         10.74126        -3.64032        -1.07279
