         232
 CSIRO Nanostructure Databank - Neutral Graphene Oxide Data Set
C        -11.14780         0.61566        -0.54750
C        -10.01113         1.46784        -0.13822
C         -8.73306         0.72364         0.37171
C         -7.46411         1.43908         0.15354
C         -6.25283         0.69580         0.32093
C         -4.92793         1.33443        -0.04007
C         -3.78579         0.86916         0.85413
C         -2.46980         1.61415         0.75771
C         -1.17155         0.86393         0.91568
C          0.04722         1.45683         0.18389
C          1.33513         0.77057         0.57993
C          2.53023         1.42049         0.64675
C          3.78729         0.65932         0.68929
C          5.03487         1.37676         0.53282
C          6.12467         0.67725        -0.02181
C          7.27685         1.44312        -0.56302
C          8.41668         0.73561        -1.21034
C          9.72592         1.44035        -1.26291
C         10.91508         0.65133        -1.52194
C         -9.82069         2.77341        -0.75442
C         -8.63456         3.46316        -0.65035
C         -7.43784         2.79827        -0.21143
C         -6.16204         3.51712        -0.29586
C         -4.97075         2.83223        -0.16993
C         -3.67289         3.49436        -0.36175
C         -2.42658         2.88010         0.02851
C         -1.14558         3.64306        -0.24587
C          0.09539         2.95307         0.28073
C          1.27151         3.63017         0.43692
C          2.57450         2.89739         0.47775
C          3.86237         3.63876         0.71587
C          5.12164         2.79505         1.09810
C          6.41881         3.47700         0.65653
C          7.61809         2.71110         0.17116
C          8.66600         3.55573        -0.52660
C          9.77822         2.80468        -1.07400
C         -8.54092         4.85979        -1.23800
C         -7.39644         5.68134        -0.67626
C         -6.17240         4.97509        -0.35494
C         -4.99463         5.69560        -0.14446
C         -3.68523         5.07629        -0.32259
C         -2.46120         5.77523         0.12628
C         -1.22469         5.08749         0.20829
C         -0.01005         5.75118         0.47359
C          1.25690         5.08708         0.47597
C          2.45702         5.81686         0.68474
C          3.72027         5.12303         0.95907
C          4.75718         5.90084         1.39865
C          6.65532         4.77187         0.98706
C          7.56643         5.63705         0.24408
C          8.63173         4.92857        -0.45852
C         -7.43646         7.05061        -0.74084
C         -6.34059         7.88087        -0.22777
C         -5.02587         7.13392         0.11128
C         -3.75783         7.88454         0.09109
C         -2.55053         7.17825         0.28566
C         -1.35123         7.95293         0.63032
C         -0.03568         7.19399         0.75097
C          1.21387         7.94644         0.61029
C          2.41932         7.24527         0.72868
C          3.60031         8.11814         1.10921
C          4.90055         7.34668         1.17759
C          6.18863         7.84007         0.52590
C          7.32227         6.98178         0.06364
C         -6.17766         9.29854        -0.59424
C         -4.99276         9.95202        -0.44655
C         -3.75500         9.29423        -0.06856
C         -2.52476        10.00679        -0.05010
C         -1.31133         9.38601         0.28162
C         -0.04782        10.03520         0.22008
C          1.17488         9.36379         0.37952
C          2.43894        10.01170         0.05211
C          3.63186         9.37089         0.25711
C          4.90048         9.85053        -0.25563
C          6.05921         9.14940        -0.17606
C        -11.18266        -0.70038        -0.30297
C        -10.09910        -1.50417         0.38350
C         -8.75256        -0.75122         0.49170
C         -7.53646        -1.38736         0.74008
C         -6.29680        -0.64587         0.66205
C         -5.04790        -1.39981         0.93838
C         -3.78570        -0.62360         1.11159
C         -2.51799        -1.32948         0.75168
C         -1.21500        -0.62941         0.98679
C          0.01431        -1.41500         0.64906
C          1.31397        -0.70969         0.57910
C          2.53892        -1.48085         1.03192
C          3.79819        -0.72285         0.70350
C          5.13290        -1.43413         0.77371
C          6.14351        -0.74106        -0.10787
C          7.24402        -1.47558        -0.64196
C          8.36049        -0.75958        -1.30741
C          9.67133        -1.51120        -1.48986
C         10.90942        -0.70448        -1.58191
C         -9.94235        -2.82291        -0.39269
C         -9.17535        -3.81844         0.12079
C         -7.40357        -2.82704         0.95003
C         -6.27829        -3.58068         0.64246
C         -5.01317        -2.86670         0.64658
C         -3.82642        -3.54375         0.57352
C         -2.55593        -2.79143         0.45658
C         -1.26121        -3.54143         0.37348
C         -0.02437        -2.89369         0.89438
C          1.23931        -3.67884         0.86158
C          2.50321        -2.92245         0.46994
C          3.76574        -3.70538         0.73150
C          5.04807        -2.95660         0.59850
C          6.02506        -3.63330        -0.35007
C          7.30979        -2.87874        -0.55340
C          8.52648        -3.61389        -0.80790
C          9.71338        -2.91627        -1.09312
C         -8.78084        -5.12450        -0.35387
C         -7.54725        -5.71330        -0.08247
C         -6.30949        -5.01851         0.31850
C         -5.09921        -5.70085         0.17487
C         -3.81213        -5.01835         0.45167
C         -2.52751        -5.73474         0.15455
C         -1.23251        -4.99023         0.07892
C          0.01607        -5.77850         0.27090
C          1.21317        -5.13874         0.54679
C          2.48839        -5.83267         0.52184
C          3.69348        -5.16015         0.41828
C          4.94663        -5.85661         0.14895
C          6.12394        -5.12068        -0.13028
C          7.34302        -5.79328        -0.42537
C          8.51893        -5.03844        -0.70298
C         -7.45449        -7.13658        -0.32672
C         -6.27297        -7.83394        -0.31611
C         -5.01545        -7.10965        -0.19411
C         -3.82677        -7.76996        -0.45884
C         -2.52603        -7.02934        -0.62356
C         -1.25812        -7.83032        -0.34336
C         -0.07511        -7.19141        -0.02709
C          1.16292        -7.99315         0.16995
C          2.45284        -7.31423         0.52104
C          3.77326        -8.08224         0.51955
C          4.96357        -7.26671         0.06815
C          6.16403        -7.94778        -0.25209
C          7.34150        -7.21741        -0.46729
C         -6.22734        -9.28336        -0.45485
C         -5.07037        -9.93704        -0.68642
C         -3.80104        -9.18674        -0.98003
C         -2.54997        -9.92818        -0.59794
C         -1.30598        -9.29491        -0.45402
C         -0.10362       -10.03561        -0.38463
C          1.19437        -9.30387        -0.58345
C          2.49514       -10.05870        -0.43087
C          3.67695        -9.44049        -0.15751
C          4.96070       -10.10057        -0.36278
C          6.12519        -9.40065        -0.38850
O         -0.80212         7.59948         1.94188
O         -9.66751         1.40129         1.27157
O          1.58546        -7.92848         1.56107
O          5.09461         2.65124         2.53616
H          5.80241         2.02309         2.79309
O          8.25708         2.22058         1.40767
H          8.48342         2.99978         1.95955
O         -3.37498         1.68894         1.95685
O          1.19635        -8.87528        -2.00149
H          1.03053        -9.66922        -2.55249
O          3.44370         3.31942        -0.64652
O         -0.96860         3.72435        -1.69720
H         -0.72552         2.81543        -1.99910
O          4.08036        -8.38715         1.91504
H          3.21571        -8.56396         2.35460
O         -5.95444         7.56947         1.14785
O         -2.47125        -6.65299        -2.03194
H         -2.62913        -7.48087        -2.54940
O        -10.57506        -1.78356         1.71615
H         -9.92305        -2.39288         2.13311
O          2.45722        -1.55304         2.47507
H          3.17584        -2.14500         2.78995
O          0.62831        -1.17833        -0.66691
O         -4.56615         0.80022        -1.35670
H         -5.13365         1.22902        -2.03112
O          4.65845        -3.53831         1.89301
O         -8.54687        -3.51196         1.36479
O         -3.75051        -9.05579        -2.47436
H         -4.64212        -8.76406        -2.76455
O         -3.57656         4.33283        -1.55912
O         -0.21906         1.20077        -1.23271
H          0.01201         0.25595        -1.42660
O          2.53026        -2.89380        -0.97542
H          1.71548        -2.44618        -1.30741
O          5.64939        -1.20531         2.13328
H          5.32287        -1.94922         2.69130
O          8.71873        -1.27614        -2.61851
O          0.56964        -3.35995         2.13439
O         -9.78428         5.54829        -1.10750
H         -9.98562         5.63763        -0.15341
O         -3.03882        -5.76287         1.51072
O         -2.59728        -1.78573        -0.63937
O         -1.08694        -4.02862        -1.01191
O          3.33111         8.55085         2.47654
H          4.19385         8.82712         2.85871
O          5.33057        -3.49615        -1.64778
H          5.97389        -3.70153        -2.35923
O         -1.02403         0.18230         2.18583
O          7.38573         1.44897        -2.00715
O          5.94453         7.96843         1.98222
O          5.87487         5.34075         1.99340
O         -4.48128        -1.08181         2.29170
H         11.86055        -1.24614        -1.69882
H         11.87225         1.18960        -1.59856
H         10.72551         3.33670        -1.25655
H          9.40711         5.52071        -0.96919
H          8.01340         7.50758        -0.61771
H          6.96695         9.55998        -0.64476
H          4.89483        10.81060        -0.79541
H          2.41072        10.98731        -0.45867
H         -0.02843        11.10664        -0.03362
H         -2.53046        11.07929        -0.29780
H         -4.93613        11.02113        -0.70198
H         -7.04769         9.83112        -1.00732
H         -8.31361         7.54226        -1.18903
H         -8.35742         4.74904        -2.34601
H        -10.65447         3.21836        -1.31864
H        -11.98118         1.10178        -1.07869
H        -12.07040        -1.27473        -0.61011
H        -10.45333        -2.94814        -1.35788
H         -9.53417        -5.73683        -0.87511
H         -8.39484        -7.68294        -0.49856
H         -7.16936        -9.84034        -0.33646
H         -5.05750       -11.03363        -0.77654
H         -2.58218       -11.02800        -0.63671
H         -0.13875       -11.13285        -0.46939
H          2.51861       -11.08758        -0.83029
H          4.96443       -11.18244        -0.56766
H          7.07370        -9.92233        -0.58612
H          8.27575        -7.74752        -0.70592
H          9.45499        -5.58006        -0.90529
H         10.67652        -3.44778        -1.09745
