         410
 CSIRO Nanostructure Databank - Neutral Graphene Oxide Data Set
C         27.88753        27.50896        -0.44049
C         27.86972        28.90041        -0.17601
C         26.62170        29.59354         0.08167
C         27.76941        31.76950         0.20385
C         26.56678        30.92619         0.32517
C         27.77467        33.17828         0.69741
C         26.65776        33.95614         0.65007
C         27.87000        35.97819         1.30627
C         26.67922        35.33832         1.05908
C         27.98903        37.41467         1.77858
C         26.73302        38.23774         1.74310
C         27.97419        40.28826         1.19677
C         26.76463        39.58029         1.57207
C         27.99718        41.69779         0.98470
C         26.84710        42.52260         1.22050
C         27.91941        44.42234         0.12091
C         26.81286        43.83124         0.81649
C         27.77893        45.63961        -0.57729
C         30.32778        27.52049        -0.52792
C         29.08489        26.84712        -0.64077
C         30.33270        28.90074        -0.18906
C         29.09479        29.58646        -0.06945
C         30.34712        31.72427         0.46365
C         29.08954        31.05248         0.06446
C         30.33038        33.05508         0.85999
C         29.05045        33.73780         1.29611
C         30.32743        35.91224         1.15287
C         29.10673        35.24272         1.21110
C         30.35834        37.35342         0.96664
C         29.15658        38.11234         1.11398
C         30.29126        40.15400         0.28624
C         29.12640        39.49796         0.89606
C         30.37119        41.61254         0.24041
C         29.18409        42.34250         0.49131
C         30.27220        44.23997        -0.65192
C         29.14876        43.69944         0.05231
C         29.97850        45.31416        -1.51146
C         28.77940        46.03825        -1.46004
C         32.84955        24.89705        -1.52467
C         31.63984        25.53114        -1.27405
C         32.81454        27.52604        -0.50599
C         31.58979        26.84809        -0.77102
C         32.81615        28.89199        -0.05790
C         31.57891        29.60233         0.02525
C         32.80464        31.65228         0.63936
C         31.57450        30.98674         0.36575
C         32.80118        33.04962         0.91662
C         31.56491        33.76052         1.01358
C         32.80622        35.88014         1.10511
C         31.57070        35.17809         1.12437
C         32.82324        37.29207         0.88216
C         31.58925        37.98270         0.69505
C         32.84292        40.14556         0.22419
C         31.60674        39.36789         0.21341
C         32.83110        41.52488        -0.00025
C         31.58516        42.25895        -0.11310
C         32.84025        44.30375        -0.75655
C         31.59073        43.62013        -0.55272
C         32.97486        45.63845        -1.34071
C         31.99363        46.22444        -2.19057
C         33.27307        48.23382        -2.52849
C         32.14235        47.47389        -2.79055
C         35.41183        23.62380        -2.20723
C         35.34756        24.85096        -1.49652
C         34.07702        25.52317        -1.23957
C         35.26589        27.46525        -0.25882
C         34.05472        26.84110        -0.68867
C         35.28132        28.78932         0.21674
C         34.04801        29.53620         0.26564
C         35.24849        31.61303         0.90475
C         34.04094        30.93076         0.60944
C         35.26573        33.02047         1.10690
C         34.03282        33.74467         1.09240
C         35.26830        35.89032         1.25464
C         34.04196        35.16686         1.16645
C         35.24312        37.30939         1.15831
C         34.05810        37.99218         0.84719
C         35.28395        40.22740         0.66787
C         34.13169        39.37652         0.22882
C         35.24796        41.58876         0.47988
C         34.05583        42.28211         0.04171
C         35.26605        44.43940        -0.15096
C         34.05296        43.67273        -0.27639
C         35.33285        45.79439        -0.53900
C         34.17846        46.39592        -1.17770
C         35.45961        48.54177        -1.43884
C         34.29551        47.71769        -1.71497
C         35.59814        49.80858        -1.95392
C         37.82273        23.47622        -1.85426
C         36.60766        22.95278        -2.36498
C         37.79401        24.74449        -1.20335
C         36.54860        25.40523        -1.01219
C         37.80684        27.35458         0.11181
C         36.49333        26.65553        -0.23131
C         37.77164        28.79605         0.40687
C         36.53563        29.42329         0.57709
C         37.79860        31.56358         1.14713
C         36.48432        30.81977         1.04477
C         37.75092        33.04226         0.95200
C         36.49153        33.76373         1.19750
C         37.77592        35.89494         1.36165
C         36.51734        35.16825         1.27886
C         37.75468        37.34893         1.63222
C         36.46221        38.08986         1.48006
C         37.78430        40.27727         1.04009
C         36.48584        39.57789         1.24371
C         37.74517        41.64964         0.82078
C         36.46015        42.36972         0.81699
C         37.75977        44.55369         0.37458
C         36.46405        43.84868         0.47744
C         37.71648        45.94787         0.12172
C         36.53114        46.55634        -0.33416
C         37.83349        48.73139        -0.59131
C         36.47631        48.06250        -0.43436
C         37.86663        50.10185        -1.07226
C         36.74449        50.60994        -1.70241
C         40.24841        20.62810        -2.22465
C         39.12130        21.39337        -2.40334
C         40.24671        23.32326        -1.41291
C         39.06197        22.73679        -1.92224
C         40.25626        24.67506        -0.94156
C         39.03321        25.37250        -0.80875
C         40.26642        27.41658        -0.27644
C         39.05896        26.71720        -0.33313
C         40.28076        28.82245         0.09264
C         39.04076        29.50466         0.49005
C         40.30437        31.60686         0.92860
C         39.04570        30.85758         0.80625
C         40.31466        33.08820         1.03970
C         39.04162        33.81647         0.95660
C         40.26896        35.96565         1.27317
C         39.00688        35.25557         1.25952
C         40.29499        37.37719         1.22193
C         39.06098        38.13603         1.47144
C         40.24149        40.18583         0.71846
C         39.02236        39.55877         1.07607
C         40.23626        41.60913         0.30168
C         38.95505        42.37785         0.40858
C         40.24125        44.51752         0.44953
C         38.99368        43.85964         0.48716
C         40.27729        45.98270         0.60719
C         38.92247        46.74703         0.40261
C         40.21853        48.91339         0.07125
C         38.96518        48.14040        -0.08549
C         40.28764        50.26367        -0.53766
C         39.10783        50.86776        -1.00214
C         40.32636        52.92511        -1.47834
C         39.14435        52.22619        -1.43436
C         42.44456        20.30756        -1.12206
C         41.39632        21.15517        -1.55819
C         42.56793        23.11535        -0.58668
C         41.43043        22.54678        -1.24535
C         42.71703        24.56981        -0.47398
C         41.50441        25.31252        -0.62919
C         42.75762        27.41063        -0.55877
C         41.51224        26.72585        -0.47622
C         42.68516        28.89335        -0.66513
C         41.46986        29.51411        -0.04705
C         42.68487        31.73300         0.02873
C         41.54887        30.88772         0.45101
C         42.70502        33.15748         0.48382
C         41.49215        33.80192         1.05776
C         42.71881        35.97096         1.03907
C         41.49936        35.24876         1.14875
C         42.73619        37.36789         0.86928
C         41.49482        38.07823         0.93467
C         42.68557        40.12977         0.10057
C         41.46059        39.48395         0.70197
C         42.68891        41.63387         0.23796
C         41.52209        42.35330         0.28077
C         42.68961        44.53640         0.15983
C         41.48962        43.81513         0.27691
C         42.72926        45.98194         0.20218
C         41.54177        46.70530         0.39038
C         42.80730        48.92361         0.15244
C         41.51786        48.18451         0.38754
C         42.78818        50.28169        -0.43313
C         41.54105        50.94002        -0.67474
C         42.79031        52.95002        -1.35058
C         41.55190        52.28166        -1.16216
C         43.41493        20.81161        -0.27087
C         45.36813        23.31067         0.43936
C         43.43637        22.19128         0.00831
C         45.25454        24.60374        -0.10663
C         43.96000        25.27111        -0.33949
C         45.25289        27.40814        -0.86644
C         43.96851        26.69343        -0.55997
C         45.26365        28.92760        -1.08603
C         43.95051        29.70012        -0.91006
C         44.94274        32.03509        -0.69796
C         43.94326        31.10995        -0.41363
C         45.19810        33.22252         0.04644
C         44.03001        33.78038         0.73212
C         45.25355        35.98347         0.83063
C         44.00704        35.26603         1.05755
C         45.25332        37.36920         0.80031
C         43.99087        38.09203         0.73252
C         45.22418        40.20888         0.49090
C         43.98784        39.46585         0.50539
C         45.23599        41.60702         0.27914
C         43.96932        42.30516        -0.03155
C         45.24291        44.50917         0.06795
C         43.95302        43.81384        -0.09146
C         45.21676        45.94512        -0.04192
C         44.00748        46.64649         0.04113
C         45.26842        48.77277        -0.54557
C         44.07864        48.12311         0.03870
C         45.24976        50.14492        -0.85412
C         44.00062        50.90634        -0.79035
C         43.97602        52.27231        -1.19888
C         47.75056        23.20891         0.12602
C         46.57789        22.60259         0.52409
C         47.74098        24.57109        -0.25194
C         46.50337        25.28216        -0.33603
C         47.77161        27.35669        -0.61730
C         46.54120        26.69425        -0.59716
C         47.82177        28.80729        -0.85277
C         46.58704        29.60873        -0.87257
C         47.89145        31.72604        -0.42884
C         46.79462        30.96639        -1.00399
C         47.73258        33.11651         0.02320
C         46.50213        33.78371         0.25093
C         47.78107        35.95807         0.95327
C         46.49953        35.17034         0.85830
C         47.74046        37.43642         0.88404
C         46.49942        38.10772         0.79868
C         47.68904        40.26666         0.78072
C         46.46954        39.52748         0.69343
C         47.65315        41.67950         0.66638
C         46.44401        42.35032         0.37983
C         47.69526        44.52544         0.21679
C         46.42955        43.80477         0.22090
C         47.68615        45.93062        -0.16947
C         46.46229        46.62847        -0.28104
C         47.66328        48.63213        -1.11118
C         46.46382        48.01295        -0.65623
C         47.61346        50.00229        -1.47266
C         46.45064        50.73292        -1.34137
C         50.22895        24.53814        -0.48058
C         49.00622        25.24992        -0.43533
C         50.28967        27.35794        -0.39521
C         49.02836        26.66771        -0.49510
C         50.34845        28.80246        -0.27646
C         49.13405        29.56775        -0.63655
C         50.34088        31.66879        -0.01204
C         49.06760        30.99063        -0.26968
C         50.27366        33.12186         0.27136
C         48.95893        33.72787         0.71433
C         50.24396        35.94437         0.71200
C         49.04480        35.25039         0.68286
C         50.24645        37.43659         0.76173
C         48.95474        38.16546         0.90488
C         50.18604        40.32774         1.06704
C         48.94198        39.57627         0.95491
C         50.19061        41.70054         0.89378
C         48.88497        42.46372         1.03140
C         50.15729        44.58639         0.48474
C         48.88255        43.86207         0.47178
C         50.18335        46.01235        -0.08492
C         48.89683        46.60433        -0.47856
C         50.13013        48.41170        -1.56719
C         48.89587        47.88682        -1.07418
C         51.43893        25.20986        -0.45036
C         52.84147        27.22179        -0.06404
C         51.48330        26.61051        -0.34212
C         52.76642        28.69993         0.34402
C         51.52176        29.46387         0.08108
C         52.78278        31.58320         0.38862
C         51.58121        30.89483         0.19521
C         52.78894        33.02264         0.73431
C         51.49672        33.79021         0.79985
C         52.73920        35.91077         0.93219
C         51.50976        35.25673         0.73050
C         52.73856        37.28631         1.32089
C         51.53539        38.15266         1.10157
C         52.68356        40.42771         1.39190
C         51.41782        39.60712         1.62234
C         52.68977        41.75805         0.90107
C         51.42710        42.46539         0.77089
C         52.66097        44.61826         0.37643
C         51.41553        43.82755         0.50916
C         52.66152        45.89615        -0.37546
C         51.43091        46.54466        -0.65873
C         51.32687        47.73307        -1.42714
C         54.98509        27.75492        -1.20656
C         53.81596        27.10138        -1.23532
C         55.32682        28.68267        -0.04844
C         54.07003        29.45718         0.35055
C         55.23814        31.66554         0.15129
C         54.05085        30.93597         0.27217
C         55.24675        33.11038         0.33664
C         54.03746        33.79041         0.62738
C         55.24465        35.89122         0.99276
C         54.00316        35.18478         0.88388
C         55.22066        37.25039         1.47137
C         53.94612        37.76064         1.83131
C         55.17737        40.37217         1.30806
C         53.92066        39.92026         1.78126
C         55.17337        41.68779         0.72603
C         53.93536        42.39395         0.68015
C         55.17016        44.41000        -0.21532
C         53.98129        43.84375         0.43499
C         55.10779        45.72472        -0.70723
C         53.90594        46.42984        -0.78366
C         56.48626        29.59766        -0.35466
C         56.45180        30.93764        -0.18547
C         56.44666        33.86978         0.32889
C         56.44600        35.20870         0.67363
C         56.34942        38.13240         1.48704
C         56.32844        39.51967         1.40276
C         56.35346        42.31981         0.22356
C         56.33522        43.60555        -0.28624
O         36.24455        43.35838         1.87176
O         50.21914        45.75964         1.36798
O         47.14895        35.35715         2.17703
O         44.17131        34.22612         2.10258
O         30.75484        39.54886        -0.97394
O         37.09137        26.54254         1.10636
O         44.27992        22.65127         1.02591
O         53.49331        44.63564         1.57903
O         40.74121        48.83304         1.44583
O         43.00067        29.44704        -1.99829
O         38.49926        37.79209         2.79795
O         38.35574        33.45033        -0.32430
O         45.23645        28.01719        -2.21488
O         45.84887        31.71280        -1.69350
O         50.46129        32.74677        -1.11035
O         48.68148        29.20404        -1.98926
O         43.94907        43.00213        -1.33212
O         43.69092        48.77049         1.31459
O         41.25456        30.99238         1.88630
O         36.23406        39.03244         2.58896
O         37.14727        31.06873         2.34911
O         28.43779        31.69087        -1.11173
O         52.07212        33.25034         2.02449
O         42.37818        32.84509        -0.91815
O         39.44205        41.86613        -0.91629
O         30.84078        45.55128        -2.58738
O         39.47467        46.49905         1.72059
O         51.09980        38.03655        -0.28834
O         53.92402        38.85896         2.68903
O         53.44722        28.99785         1.60363
O         51.17790        39.48517         3.04505
H         51.05623        40.38418         3.41683
O         35.98004        48.52416         0.87379
H         36.63244        48.24584         1.55252
O         28.96637        33.42395         2.74296
H         28.39698        34.10884         3.15624
O         48.86029        33.33205         2.11404
H         48.16947        33.90835         2.53147
O         28.34352        37.29493         3.20950
H         28.44925        38.20469         3.56053
O         42.58653        39.88646        -1.34967
H         41.83226        40.41438        -1.69070
O         34.39912        39.08060        -1.20906
H         33.54540        38.81775        -1.61764
O         53.38640        26.44097         1.01765
H         54.28437        26.80877         1.22350
O         55.73886        27.84953         1.07463
H         55.59674        28.37494         1.89201
O         48.79441        42.65893         2.50282
H         48.15668        43.38568         2.67061
H         26.93687        26.96123        -0.51043
H         25.70532        28.98741         0.14214
H         25.61853        31.39405         0.62763
H         25.70743        33.54072         0.28335
H         25.72558        35.88165         1.10564
H         25.78400        37.75398         2.01734
H         25.82678        40.14701         1.65934
H         25.95793        42.09090         1.69916
H         25.90081        44.42871         0.95978
H         26.83203        46.19468        -0.52150
H         29.06164        25.77413        -0.87303
H         28.62692        46.88520        -2.14130
H         32.83072        23.87757        -1.93171
H         30.71080        24.99089        -1.49829
H         33.35196        49.23084        -2.97694
H         31.35312        47.84525        -3.45597
H         34.49957        23.18284        -2.63012
H         34.83218        50.24189        -2.60999
H         36.60649        21.99487        -2.90189
H         36.74398        51.62810        -2.11160
H         40.25459        19.57363        -2.53646
H         38.23704        20.93777        -2.86860
H         40.34109        53.97346        -1.80865
H         38.21689        52.73536        -1.72546
H         42.41575        19.23653        -1.36704
H         42.78807        54.00044        -1.67455
H         44.15499        20.15238         0.20096
H         44.91471        52.80191        -1.40435
H         48.69190        22.65195         0.20097
H         46.57325        21.58314         0.92995
H         48.52058        50.50857        -1.82918
H         46.47535        51.79622        -1.61151
H         50.23724        23.44147        -0.52152
H         50.12995        49.36726        -2.10869
H         52.38081        24.64513        -0.44055
H         52.23042        48.16813        -1.87581
H         55.72265        27.62759        -2.01378
H         53.58134        26.41095        -2.06013
H         56.02258        46.18761        -1.10524
H         53.93054        47.43103        -1.23556
H         57.43133        29.10999        -0.63679
H         57.37185        31.51090        -0.36755
H         57.40583        33.38592         0.10193
H         57.40263        35.74689         0.72133
H         57.34261        37.66742         1.38452
H         57.30836        39.99780         1.24761
H         57.29677        41.75685         0.21419
H         57.25094        44.03418        -0.71922
