         410
 CSIRO Nanostructure Databank - Neutral Graphene Oxide Data Set
C         28.05856        27.45347         1.62215
C         28.01287        28.86977         1.54760
C         26.80801        29.58244         1.55131
C         27.96050        31.69191         1.01988
C         26.78145        30.96344         1.34678
C         27.88840        33.08581         0.61586
C         26.71559        33.83124         0.59114
C         27.84787        35.97986         0.16479
C         26.69813        35.23213         0.38327
C         27.87442        37.43158         0.09037
C         26.70196        38.20008         0.31119
C         27.82868        40.31658        -0.14508
C         26.69390        39.59510         0.23760
C         27.84989        41.76484        -0.23187
C         26.63798        42.51709        -0.24647
C         27.88519        44.60970        -0.23148
C         26.65711        43.89363        -0.25074
C         27.90741        46.03357        -0.23632
C         30.49097        27.45232         1.22283
C         29.24823        26.77231         1.50345
C         30.51115        28.85352         1.15997
C         29.30454        29.63666         1.61127
C         30.43049        31.70266         0.73735
C         29.20944        31.01949         1.01905
C         30.41033        33.06951         0.45746
C         29.13526        33.73880         0.19576
C         30.36611        36.03040        -0.02650
C         29.11234        35.27058        -0.06165
C         30.35031        37.41790        -0.23231
C         29.08200        38.09831        -0.23928
C         30.36644        40.28720        -0.53892
C         29.04026        39.54735        -0.47422
C         30.34689        41.71916        -0.13632
C         29.07808        42.46851        -0.23872
C         30.36145        44.61777        -0.22909
C         29.11531        43.88910        -0.21882
C         30.35156        46.03694        -0.24673
C         29.09797        46.72067        -0.24006
C         32.87938        24.53530         0.89299
C         31.75786        25.27259         1.10899
C         32.86623        27.40260         0.59108
C         31.69582        26.70871         0.93076
C         32.91330        28.83459         0.57307
C         31.70400        29.56369         0.81936
C         32.89443        31.67292         0.35087
C         31.69785        30.98001         0.68692
C         32.92001        33.10049         0.27829
C         31.65772        33.83902         0.48785
C         32.87242        36.02380        -0.09107
C         31.62687        35.33806         0.23097
C         32.85473        37.40393        -0.31034
C         31.60808        38.13490        -0.34233
C         32.85863        40.26217        -0.50869
C         31.64171        39.54570        -0.41608
C         32.88919        41.71610        -0.54093
C         31.65495        42.45723        -0.17446
C         32.80098        44.61621        -0.51438
C         31.61378        43.92518        -0.32469
C         32.82822        46.03741        -0.37465
C         31.60565        46.75486        -0.23588
C         32.89473        48.80081         0.06663
C         31.67809        48.16345        -0.08595
C         35.47457        23.06618         0.59842
C         35.40299        24.43428         0.30396
C         34.07711        25.12614         0.28469
C         35.36649        27.32631         0.15267
C         34.04636        26.63899         0.14861
C         35.39928        28.81920         0.19174
C         34.11519        29.54266         0.28685
C         35.33183        31.65776        -0.16219
C         34.12000        30.94692         0.17239
C         35.29388        33.06247        -0.27427
C         34.10756        33.78971        -0.00589
C         35.36407        35.98131        -0.39726
C         34.16153        35.29639         0.20128
C         35.32932        37.40249        -0.55689
C         34.09859        38.11925        -0.48233
C         35.30083        40.23169        -0.90551
C         34.09666        39.53927        -0.62852
C         35.28493        41.69184        -1.26265
C         34.04056        42.41102        -0.80995
C         35.31441        44.57611        -0.49093
C         34.04651        43.90958        -0.98967
C         35.31638        45.92097        -0.25920
C         34.08550        46.70684        -0.25023
C         35.36300        48.69900         0.54125
C         34.11759        48.08180         0.05979
C         35.37181        50.03418         1.06737
C         37.82677        23.01452        -0.02287
C         36.66753        22.36937         0.42569
C         37.81947        24.42369        -0.22390
C         36.58466        25.11189        -0.08426
C         37.81587        27.32848        -0.57769
C         36.53243        26.55987        -0.39090
C         37.82563        28.80523        -0.43048
C         36.61916        29.53483        -0.24671
C         37.79617        31.66131        -0.64209
C         36.57028        30.93620        -0.36484
C         37.76980        33.04090        -0.76873
C         36.46366        33.77706        -0.89640
C         37.76428        35.96460        -0.81215
C         36.53859        35.26260        -0.60713
C         37.73589        37.37509        -0.93077
C         36.53522        38.10163        -0.87229
C         37.72894        40.27457        -1.26508
C         36.52874        39.54072        -1.04510
C         37.76337        41.69747        -1.02728
C         36.57017        42.38653        -0.88657
C         37.83946        44.48803        -0.32116
C         36.53731        43.72849        -0.21062
C         37.84365        45.84743         0.02775
C         36.61638        46.69356        -0.22273
C         37.70818        48.47074         1.36905
C         36.53965        47.97179         0.55730
C         37.79341        49.98674         1.40141
C         36.56339        50.66983         1.39250
C         40.35051        20.16681        -0.09196
C         39.15942        20.80862        -0.00211
C         40.32912        23.00352        -0.61191
C         39.03042        22.22610        -0.37424
C         40.31935        24.47049        -0.46762
C         39.06857        25.16175        -0.43548
C         40.30278        27.30593        -0.49560
C         39.08115        26.57571        -0.48359
C         40.27488        28.72431        -0.62552
C         39.06388        29.47374        -0.58420
C         40.25370        31.62075        -0.78087
C         39.06142        30.92949        -0.68235
C         40.31246        33.05985        -1.06370
C         38.98672        33.80006        -1.08752
C         40.25236        35.91968        -0.82796
C         39.01775        35.26041        -0.91203
C         40.22955        37.40245        -0.78629
C         38.98623        38.05751        -1.30182
C         40.28415        40.29683        -1.47171
C         38.97879        39.54687        -1.51174
C         40.24596        41.74010        -1.17508
C         39.05908        42.39491        -0.91951
C         40.27419        44.53835        -0.46146
C         39.06145        43.81143        -0.55791
C         40.29427        45.84841         0.07813
C         39.05859        46.48529         0.35274
C         40.33119        48.55374         1.11129
C         39.03795        47.78097         1.05995
C         40.28684        50.01620         1.30259
C         39.04899        50.67852         1.52906
C         40.26417        52.78680         1.79376
C         39.08272        52.08506         1.79205
C         42.82403        20.17671        -0.30786
C         41.58849        20.87373        -0.33350
C         42.81895        22.99906        -0.45319
C         41.59640        22.27610        -0.45657
C         42.80653        24.43718        -0.46036
C         41.55156        25.16064        -0.43741
C         42.79820        27.28817        -0.37453
C         41.56327        26.59757        -0.43355
C         42.83043        28.73652        -0.42997
C         41.56330        29.42634        -0.77886
C         42.74555        31.68518        -0.36159
C         41.54500        30.91934        -0.81359
C         42.78292        33.13937        -0.58514
C         41.55840        33.82171        -0.81671
C         42.76013        35.94104        -0.43899
C         41.49987        35.22482        -0.75364
C         42.78679        37.45058        -0.41051
C         41.49691        38.17744        -0.66226
C         42.82402        40.31830        -0.88571
C         41.57540        39.57441        -1.18543
C         42.81967        41.70850        -0.98009
C         41.55004        42.44322        -1.20813
C         42.81630        44.57009        -0.50828
C         41.54476        43.92397        -0.87810
C         42.79931        45.92646        -0.11728
C         41.55015        46.58178         0.19237
C         42.76601        48.69115         0.57291
C         41.55531        47.92881         0.57089
C         42.74483        50.08713         0.90048
C         41.50229        50.74136         1.23174
C         42.71494        52.87215         1.44828
C         41.49465        52.14332         1.49171
C         44.01766        20.86226        -0.36743
C         45.29455        23.00973        -0.44025
C         44.05103        22.28346        -0.40953
C         45.27362        24.41438        -0.56386
C         44.03660        25.13405        -0.47701
C         45.25968        27.28240        -0.31813
C         44.04137        26.57680        -0.36511
C         45.28450        28.75052         0.03602
C         44.00199        29.44530        -0.31733
C         45.28939        31.67796        -0.33667
C         44.02817        30.92705        -0.18798
C         45.27423        33.08199        -0.43286
C         44.02931        33.81622        -0.51025
C         45.26160        35.96387        -0.55396
C         44.05132        35.23842        -0.56831
C         45.27132        37.42705        -0.61639
C         44.06379        38.15680        -0.63636
C         45.27691        40.30057        -0.78835
C         44.04729        39.58315        -0.75635
C         45.27659        41.73053        -0.80983
C         44.04372        42.43842        -0.83712
C         45.27768        44.55753        -0.48114
C         44.03589        43.86339        -0.65276
C         45.26419        45.96865        -0.25765
C         44.03223        46.64657        -0.04619
C         45.18437        48.82873         0.18249
C         43.99247        48.05796         0.24240
C         45.18524        50.19422         0.51670
C         43.94809        50.84098         0.87080
C         43.89929        52.24155         1.15374
C         47.72341        22.97668        -0.02588
C         46.53334        22.33053        -0.15168
C         47.89869        24.36020        -0.45454
C         46.52429        25.15548        -0.78210
C         47.58362        27.42551        -0.94884
C         46.47642        26.62873        -0.64975
C         47.71828        28.82521        -0.64174
C         46.51262        29.53161        -0.40760
C         47.76130        31.64779        -0.56183
C         46.51911        30.94360        -0.42383
C         47.76391        33.08215        -0.52559
C         46.51337        33.81947        -0.47178
C         47.75154        35.99276        -0.37634
C         46.49141        35.23108        -0.49566
C         47.76128        37.43697        -0.67707
C         46.51076        38.14641        -0.72263
C         47.73096        40.30131        -0.91785
C         46.50633        39.57206        -0.79006
C         47.76314        41.71156        -0.85547
C         46.52010        42.45326        -0.74838
C         47.79628        44.57092        -0.22663
C         46.51050        43.84969        -0.57490
C         47.73996        46.07330        -0.38900
C         46.51080        46.70725        -0.31167
C         47.69405        48.98147        -0.30600
C         46.40802        48.18314        -0.32507
C         47.63388        50.31489         0.30927
C         46.44802        50.89466         0.61907
C         49.95774        24.67195         1.02940
C         49.09380        25.10943         0.00363
C         50.28855        27.28595         0.02970
C         49.37858        26.37918        -0.52728
C         50.27073        28.71509        -0.42967
C         48.98550        29.47958        -0.63193
C         50.22922        31.64681        -0.56574
C         48.99190        30.90868        -0.58750
C         50.21107        33.05791        -0.70260
C         48.99774        33.76989        -0.62422
C         50.30022        35.98468        -0.84208
C         49.06947        35.23761        -0.47667
C         50.23579        37.37122        -0.97015
C         48.97993        38.08556        -0.89581
C         50.29934        40.32457        -1.11905
C         48.94767        39.53148        -1.18401
C         50.23552        41.75533        -0.81978
C         49.01487        42.42141        -0.82224
C         50.35068        44.65342        -0.75650
C         49.02677        43.90549        -0.82264
C         50.25528        46.14873        -0.56576
C         48.99516        46.81399        -0.43205
C         50.14701        48.99504        -0.48831
C         48.97375        48.23790        -0.36687
C         51.05683        25.44208         1.40300
C         52.40603        27.57262         1.31500
C         51.25571        26.75781         0.91870
C         52.44775        28.91106         0.95575
C         51.45358        29.52369         0.05087
C         52.57890        31.71564         0.13754
C         51.42917        30.99494        -0.11323
C         52.73888        33.04481        -0.42937
C         51.47781        33.78930        -0.88557
C         52.80735        35.89721        -0.96272
C         51.55456        35.26938        -0.91655
C         52.83644        37.38800        -1.12824
C         51.50243        38.12114        -1.16984
C         52.54697        40.18305        -0.13547
C         51.48836        39.55814        -0.79667
C         52.50458        41.59499         0.09551
C         51.44308        42.42368        -0.38521
C         52.77357        44.41800         0.15724
C         51.54447        43.84060        -0.36685
C         53.20931        45.72741        -0.15958
C         51.37119        46.96365        -0.81512
C         51.35091        48.36165        -0.75131
C         54.65953        27.70810         2.30095
C         53.51474        26.99974         2.04442
C         54.75022        29.10317         1.98763
C         53.52988        29.75357         1.49336
C         54.96566        31.83476         0.99972
C         53.64195        31.20522         1.01790
C         55.11359        33.12017         0.31407
C         53.97148        33.79881        -0.19603
C         55.34656        35.58080        -0.99607
C         54.03448        35.11808        -0.72907
C         55.31742        37.84171        -0.91161
C         53.99633        38.21948        -0.64401
C         54.91861        40.09358         0.64614
C         53.80671        39.45753         0.03332
C         54.72450        41.34836         1.40094
C         53.50673        42.19152         0.98427
C         54.83268        44.23323         1.51907
C         53.67477        43.64739         0.95183
C         55.10146        45.60398         1.32550
C         54.31985        46.33395         0.43668
C         55.89984        29.86539         2.15209
C         56.00834        31.18791         1.64962
C         56.38077        33.70727         0.13080
C         56.49400        34.89443        -0.58610
C         56.43224        38.52608        -0.41037
C         56.22288        39.62071         0.41720
C         55.88188        42.06539         1.97177
C         55.86229        43.40775         2.12481
O         35.65888        27.98363         1.42032
O         55.55413        36.74294        -1.74750
O         36.95683        26.91617        -1.73251
O         48.52876        35.66384         0.83098
O         31.67645        34.76526         1.66910
O         40.59924        38.04587         0.49364
O         49.66967        39.93391        -2.37668
O         39.65225        33.38540        -2.34241
O         39.50667        22.52023        -1.72855
O         53.10167        30.87512         2.34918
O         29.65081        39.99828        -1.76721
O         48.65116        26.84243        -1.63566
O         41.16222        39.84917        -2.56146
O         41.72231        30.16527        -2.06421
O         53.55436        41.45835         2.26420
O         52.34691        33.13133        -1.84808
O         51.39448        28.95423        -1.33119
O         49.66140        44.37224        -2.04246
O         38.95424        38.59984        -2.65107
O         39.85774        47.76202         2.28537
O         52.59737        46.41456        -1.20349
O         31.07975        41.98566         1.10483
O         29.07715        34.30120        -1.16793
O         47.41052        24.62326        -1.79190
O         33.82109        25.78975        -1.00971
O         52.25796        37.83496        -2.39865
O         43.20991        31.33729         0.99621
O         42.73175        36.69876         0.83809
O         46.91458        48.83416        -1.54324
O         41.59228        43.44912        -2.27335
O         45.35871        28.78033         1.51691
H         45.03898        29.66201         1.80968
O         47.98734        44.34143         1.22105
H         47.18044        44.65569         1.68183
O         29.53262        29.86909         3.06867
H         28.74049        30.33907         3.40790
O         36.41966        43.39726         1.22973
H         36.43916        44.24016         1.73231
O         36.79979        47.13739        -1.62419
H         36.56548        46.38501        -2.20968
O         37.37264        48.09044         2.75382
H         38.23026        48.08129         3.24265
O         36.17774        33.73356        -2.34971
H         37.01650        33.91720        -2.82675
O         35.24941        41.73154        -2.76875
H         34.61479        41.04312        -3.06460
O         34.05135        44.13805        -2.44786
H         34.57818        43.40027        -2.85438
O         34.34548        35.44599         1.65802
H         33.47804        35.19703         2.06860
H         27.11641        26.89593         1.73351
H         25.85951        29.03629         1.66425
H         25.80991        31.47469         1.34785
H         25.75587        33.34903         0.82235
H         25.72640        35.73805         0.46882
H         25.76918        37.69180         0.58866
H         25.76425        40.12536         0.48600
H         25.67347        41.99200        -0.26881
H         25.71318        44.45724        -0.26930
H         26.95351        46.58034        -0.24387
H         29.22913        25.67578         1.54651
H         29.07679        47.81858        -0.25455
H         32.88777        23.47738         1.19086
H         30.88495        24.76060         1.53599
H         32.89717        49.88665         0.23028
H         30.75961        48.76342        -0.03582
H         34.57693        22.51340         0.90432
H         34.44368        50.61926         1.09966
H         36.67084        21.28612         0.60268
H         36.52691        51.74832         1.60053
H         40.41162        19.09167         0.13290
H         38.27106        20.25227         0.32727
H         40.26576        53.86416         2.01333
H         38.15125        52.62106         2.01461
H         42.81951        19.07924        -0.24392
H         42.69800        53.95306         1.64864
H         44.95356        20.28900        -0.37730
H         44.81858        52.83981         1.11485
H         48.58829        22.43847         0.38796
H         46.49448        21.26928         0.12740
H         48.56810        50.84313         0.54620
H         46.46112        51.90223         1.05560
H         49.80334        23.69477         1.50733
H         50.10443        50.09134        -0.46295
H         51.75549        25.02448         2.13964
H         52.26760        48.92998        -0.95030
H         55.52256        27.21173         2.76814
H         53.47693        25.93766         2.32063
H         55.99196        46.05406         1.78582
H         54.58496        47.36332         0.16369
H         56.79070        29.40123         2.59974
H         56.99070        31.67532         1.72240
H         57.28819        33.19914         0.48163
H         57.48039        35.31207        -0.82502
H         57.44444        38.18458        -0.65951
H         57.08469        40.14443         0.85057
H         56.74426        41.48587         2.33117
H         56.71742        43.92148         2.58847
