         276
 CSIRO Nanostructure Databank - Neutral Graphene Oxide Data Set
C        -10.50669         1.49436        -0.51433
C         -9.66134         1.99127         0.60612
C         -8.70336         1.02212         1.25702
C         -7.49898         1.50655         2.02784
C         -6.24155         0.69034         1.86166
C         -5.03640         1.19693         2.29949
C         -3.72801         0.61802         1.95100
C         -2.52063         1.50870         1.68886
C         -1.18559         0.92517         1.11735
C         -0.03798         1.56043         1.97216
C          1.28965         0.84758         1.73652
C          2.55286         1.55455         1.81179
C          3.84309         0.76206         1.71554
C          5.11520         1.42801         1.23845
C          6.24952         0.55520         0.81839
C          7.33003         1.14195        -0.02453
C          8.71700         0.54010         0.06807
C          9.60968         0.95532        -1.12268
C         10.95778         0.28816        -0.96280
C         -9.74577         3.44057         1.04185
C         -8.82636         3.82398         2.16529
C         -7.52512         3.04446         2.25235
C         -6.32313         3.77925         1.80827
C         -5.06053         3.34655         2.13306
C         -3.84978         3.82423         1.54571
C         -2.61817         2.99998         1.44344
C         -1.33544         3.70033         1.11408
C         -0.04355         3.05599         1.58678
C          1.22635         3.78771         1.30266
C          2.54924         3.04917         1.45900
C          3.72861         3.53471         0.66393
C          5.07824         2.87533         0.78841
C          6.16746         3.44116        -0.07108
C          7.27353         2.54508        -0.52032
C          8.51995         3.21624        -1.00506
C          9.63656         2.46708        -1.23740
C         -8.96755         4.79811         1.03403
C         -7.75523         5.36919         0.37991
C         -6.45799         4.69321         0.65066
C         -5.17500         5.37311         0.19496
C         -3.89163         5.01138         0.82068
C         -2.67982         5.69827         0.41985
C         -1.39495         5.23616         1.11198
C         -0.09510         5.91644         0.51193
C          1.10079         4.93032         0.28465
C          2.43035         5.73927         0.23473
C          3.62839         4.84692        -0.04260
C          4.89005         5.56442        -0.43608
C          5.96418         4.64681        -0.99741
C          7.27673         5.36481        -1.24835
C          8.44917         4.64692        -1.26742
C         -7.79367         6.60947        -0.18735
C         -6.59461         7.33381        -0.68896
C         -5.25629         6.67907        -0.51855
C         -4.05965         7.60686        -0.33693
C         -2.74886         6.87607        -0.26910
C         -1.62014         7.42285        -1.10542
C         -0.26673         6.76056        -0.77461
C          1.01414         7.40670        -1.21463
C          2.40296         6.79581        -0.92308
C          3.55390         7.82542        -0.77999
C          4.87800         7.02697        -0.79647
C          6.01719         7.47715        -1.64413
C          7.17684         6.73025        -1.71271
C         -6.55683         8.82280        -0.81286
C         -5.41927         9.51158        -1.04670
C         -4.09970         8.79728        -1.32469
C         -2.80048         9.59189        -1.22192
C         -1.61003         8.94728        -1.16897
C         -0.29553         9.63862        -1.39066
C          0.99044         8.87629        -1.53404
C          2.21832         9.37906        -2.21481
C          3.43953         8.84641        -1.91065
C          4.65409         9.31825        -2.54546
C          5.86236         8.70263        -2.39054
C        -10.38922         0.25057        -1.00969
C         -9.19514        -0.61218        -0.68039
C         -8.64136        -0.39841         0.72115
C         -7.56157        -1.36184         1.14218
C         -6.26383        -0.74901         1.52407
C         -5.08751        -1.47212         1.41861
C         -3.85293        -0.64433         1.10358
C         -2.51556        -1.37295         0.97352
C         -1.23907        -0.59045         1.04436
C          0.13269        -1.24141         1.03535
C          1.26166        -0.65225         1.88028
C          2.59157        -1.38128         1.65654
C          3.78142        -0.72602         1.63378
C          5.09773        -1.44898         1.75388
C          6.30642        -0.75408         1.21052
C          7.57406        -1.52754         1.05112
C          8.68935        -0.94679         0.28645
C          9.85712        -1.67396         0.04571
C         11.03277        -0.96644        -0.47988
C         -9.26708        -2.04780        -1.11417
C         -8.36241        -2.99955        -0.67634
C         -7.59128        -2.80293         0.59592
C         -6.34757        -3.66223         0.90288
C         -5.02473        -2.95620         1.21420
C         -3.68206        -3.65143         1.05538
C         -2.37249        -2.84047         1.32252
C         -1.07271        -3.46792         0.72992
C          0.19794        -2.65660         0.60185
C          1.55007        -3.37832         0.50813
C          2.55451        -2.87736         1.53411
C          3.80256        -3.69112         1.65135
C          5.11156        -2.96557         1.91751
C          6.42347        -3.80338         1.87553
C          7.63519        -3.01395         1.35162
C          8.75971        -3.77890         0.74613
C          9.88419        -3.07329         0.25817
C         -8.22812        -4.24219        -1.34467
C         -7.25021        -5.22141        -1.03887
C         -6.31348        -5.08888         0.17482
C         -4.89262        -5.60188        -0.19390
C         -3.61829        -4.94588         0.25471
C         -2.36474        -5.21511        -0.59753
C         -1.06273        -4.79790         0.07038
C          0.24944        -5.31565        -0.53379
C          1.44882        -4.86762         0.30021
C          2.59753        -5.60213         0.36301
C          3.92456        -4.94932         0.77320
C          5.01525        -5.87305         1.35352
C          6.31230        -5.18494         1.26673
C          7.50091        -5.91363         0.97868
C          8.69925        -5.16943         0.67591
C         -7.20904        -6.38795        -1.79016
C         -6.09569        -7.38262        -1.58203
C         -4.83041        -6.48465        -1.45629
C         -3.55000        -7.30949        -1.53905
C         -2.29586        -6.66094        -1.10411
C         -1.12327        -7.52913        -0.76218
C          0.17748        -6.83458        -0.53924
C          1.43935        -7.58547        -0.91580
C          2.68781        -6.78018        -0.54405
C          3.79942        -8.20114         1.08610
C          5.00782        -7.40650         1.35083
C          6.35430        -8.17088         1.27183
C          7.49213        -7.30180         0.81458
C         -5.83460        -8.41051        -2.66801
C         -4.69710        -9.12860        -2.65101
C         -3.62694        -8.83673        -1.60657
C         -2.24807        -9.44351        -1.83702
C         -1.11789        -8.92559        -1.30149
C          0.18445        -9.73782        -1.25904
C          1.32010        -9.08063        -0.41912
C          2.67879        -9.73347        -0.56480
C          3.78605        -9.28989         0.11598
C          5.10843        -9.86106        -0.16050
C          6.24632        -9.38481         0.37653
O         -8.82948        -1.23935         1.87542
O          6.13384         3.71110         1.35621
O          5.15462        -2.09453         3.07217
O         -5.74582         4.24002        -0.54718
O          6.81825         1.43328        -1.38273
O        -10.00601         1.22825         1.85359
O          4.84045         1.24028         2.66156
O         -4.13120        -6.12112         0.93302
O         -8.28107        -3.57712         1.68824
O         -1.57339         5.64644         2.43304
O         -7.59222         2.11493         3.35654
O         -2.72453         0.86107         2.97629
O         -5.90677         6.62960        -1.81091
O          3.35998         3.60940        -0.78603
O          3.47231         8.55542         0.44593
O          3.70910        -6.91999        -1.23919
O          2.73633         2.64598         2.81984
O          0.33605         6.42878        -2.06774
O          0.55917         3.93267         2.58468
O         -6.83390        -6.05125         1.11265
O         -4.40709        -3.74517         2.30225
O         -2.10520         3.16578         0.03728
O          2.80200        -3.71990         2.69752
O         -4.95434         2.33302         3.10799
O          0.33232        -1.56140        -0.38059
O         -0.89830        -4.71634         1.50267
O          4.77683        -6.64058         2.59233
O         -0.59510        -7.33957         0.57902
O         -2.61611        -6.76641        -2.52946
O          5.33407         6.55632         0.51322
O          8.07560        -2.05285         2.35705
O         -1.88566        -0.99304        -0.25497
O         -0.06834       -11.00502        -0.64073
H         -0.99929       -11.26455        -0.80176
O         -4.88464        -5.59583        -2.58785
H         -3.95022        -5.40053        -2.84789
O         -4.18610        -0.09802        -0.21304
H         -3.36537        -0.11081        -0.76274
O          2.16684        -3.02576        -0.78353
H          1.84411        -2.11611        -1.01520
O          0.41436        -4.81498        -1.87403
H          1.07824        -4.07696        -1.84258
O          6.62300        -8.64521         2.61580
H          6.67158        -7.85379         3.19589
O          0.82559         4.27458        -0.96414
H          1.60913         3.72666        -1.20820
O          1.48020        -7.66610        -2.35797
H          2.41007        -7.49828        -2.63707
O          0.65474         9.62693        -0.28628
H          2.63433         9.06727         0.45556
O         -9.34810         4.17305         3.42743
H         -9.14196         3.42920         4.03520
O          2.77814         6.07341        -2.12165
H          1.95640         5.64011        -2.45807
O         -0.32226         1.47412         3.38318
H          0.12696         2.23800         3.81489
O          0.89082        -0.96847         3.25312
H          0.41050        -0.18925         3.63619
O         -4.15123         8.38757        -2.70371
H         -4.82296         7.66535        -2.77717
O         -0.77635         1.29836        -0.20792
H         -1.33122         0.81868        -0.86075
O         -2.01772         6.98186        -2.43478
H         -1.21980         6.61941        -2.88526
O          4.51574        -4.44917        -0.45448
H          4.52308        -5.19342        -1.10417
O         -6.34683        -8.15831        -0.38742
H         -6.59692        -7.54506         0.35399
O          0.25543         6.92484         1.47236
H         -0.32360         6.71734         2.27462
O         -2.15323        -2.81712         2.73793
H         -2.12811        -3.74275         3.06493
O          9.06955         0.42001        -2.35476
H          8.17716         0.82499        -2.48263
O          5.54439         4.16042        -2.29052
H          4.61887         3.83414        -2.20825
O          2.81937        -8.00331         1.93369
H          3.13946        -7.32874         2.59922
O          2.71962         6.28138         1.51478
H          1.94028         6.81437         1.81622
O         -4.00225        -9.38403        -0.32797
H         -4.94140        -9.11054        -0.14127
O         -4.23982         8.19956         0.99246
H         -3.62173         7.76790         1.62116
O         -2.47464        -4.33351        -1.74057
H         -1.67528        -4.47123        -2.30117
O         -8.09254        -0.05309        -1.50027
H         -8.39402        -0.01422        -2.43296
O          9.33401         1.10892         1.25605
H          8.92764         0.70118         2.05042
O          0.94973        -9.17992         0.95194
H          0.34322        -9.95236         1.02129
O          6.73015        -4.09661         3.26437
H          6.79519        -3.22694         3.72363
O         -6.95294        -3.91901         2.23932
H         -6.86426        -5.62811         2.00932
H         11.99649        -1.49652        -0.44471
H         11.85466         0.79193        -1.35329
H         10.54474         2.95141        -1.62929
H          9.38659         5.15397        -1.54462
H          8.04566         7.15263        -2.24317
H          6.74108         9.09320        -2.92592
H          4.57613        10.19853        -3.20202
H          2.13406        10.18512        -2.96097
H         -0.36052        10.63247        -1.88929
H         -2.83149        10.68645        -1.35546
H         -5.46367        10.60887        -1.13407
H         -7.50623         9.36359        -0.67125
H         -8.76484         7.12334        -0.27473
H         -9.71875         5.58427         1.22902
H        -10.80487         3.67888         1.25086
H        -11.32682         2.14648        -0.85258
H        -11.08376        -0.10302        -1.78779
H         -9.87170        -2.27623        -2.00754
H         -8.87251        -4.42630        -2.21870
H         -7.93452        -6.52569        -2.60777
H         -6.60980        -8.60417        -3.42567
H         -4.51801        -9.90927        -3.40686
H         -2.22499       -10.46141        -2.26299
H          0.55102        -9.90262        -2.31370
H          2.81096       -10.55632        -1.28556
H          5.13959       -10.73464        -0.82863
H          7.19563        -9.88799         0.13976
H          8.39907        -7.80545         0.45148
H          9.57425        -5.72138         0.30014
H         10.76911        -3.64500        -0.05946
