         320
 CSIRO Nanostructure Databank - Neutral Graphene Oxide Data Set
C         30.42780        31.80353        -1.27176
C         30.38668        33.05690        -1.24590
C         30.45465        36.28102        -1.11556
C         30.50179        37.51502        -1.09951
C         30.59064        40.62436        -1.21533
C         30.57248        41.88135        -1.29546
C         32.67975        28.80873        -0.68816
C         31.67658        29.51066        -1.03712
C         32.69961        31.60197        -0.52582
C         31.45178        30.87871        -1.03058
C         32.63545        33.07948        -0.25897
C         31.30298        33.93285        -0.39631
C         32.84923        36.02600        -0.88977
C         31.52963        35.28662        -1.03364
C         32.93297        37.55303        -1.10522
C         31.62741        38.33711        -0.54718
C         32.91161        40.45027        -0.71591
C         31.73690        39.78186        -0.93784
C         33.00392        41.95906        -0.74699
C         31.31336        42.70671        -0.32733
C         32.73067        44.60335         0.18698
C         31.76574        44.11067        -0.41746
C         35.39654        27.48488         0.18356
C         35.17647        28.71192        -0.27434
C         34.05279        29.39181        -0.99762
C         35.19646        31.59627        -0.58090
C         34.02754        30.90982        -0.69125
C         35.22728        33.12509        -0.60287
C         33.94902        33.82566        -0.13607
C         35.35722        36.03295        -0.44849
C         34.01309        35.31289        -0.26632
C         35.18117        37.43236         0.22940
C         34.13389        38.22169        -0.50949
C         35.28049        40.29854         0.27981
C         34.26151        39.70776        -0.72442
C         35.41687        41.84266         0.19212
C         34.03039        42.51278         0.23930
C         35.10116        44.65207         1.40065
C         33.92563        43.92801         0.74700
C         35.34746        46.01517         0.87760
C         37.63429        27.32028         0.66537
C         36.37074        26.80131         0.77117
C         37.72369        28.63470        -0.14819
C         36.48836        29.53575         0.04893
C         37.76307        31.60818        -0.30477
C         36.52729        30.85615        -0.76282
C         37.79290        33.09761        -0.57492
C         36.48711        33.70543         0.11538
C         37.33423        35.90772         1.04642
C         36.44464        35.22697         0.24505
C         37.58070        37.35828         0.83134
C         36.52641        38.12487         0.38746
C         37.71875        40.21159         0.98293
C         36.66880        39.60859         0.08821
C         37.71474        41.63972         1.50554
C         36.31043        42.39708         1.37035
C         37.59195        44.53038         0.73505
C         36.44957        43.90712         1.11270
C         37.61592        45.93211         0.08012
C         36.36557        46.61870         0.54184
C         40.10869        24.76180         1.86755
C         39.06887        25.38423         1.64710
C         40.15161        27.19196         0.45533
C         38.88978        26.84300         1.32656
C         40.19063        28.70711         0.22656
C         39.02960        29.38427         0.02575
C         40.25260        31.53640         0.12555
C         39.04852        30.83202        -0.46339
C         40.24779        33.02035         0.30689
C         39.07237        33.79992        -0.14091
C         40.27827        35.90831         0.31920
C         39.27360        35.16190        -0.40687
C         40.14122        37.25848         0.77203
C         38.91748        37.94820         0.92575
C         40.23654        40.21982         1.42259
C         38.90350        39.41359         1.22991
C         40.27477        41.76824         1.40820
C         38.94684        42.33685         0.80352
C         40.20377        44.60097         0.64939
C         38.91942        43.85757         0.89694
C         40.12517        46.04500         0.27255
C         38.90782        46.67966         0.26812
C         40.05178        48.86650         0.10871
C         39.07212        48.09923         0.08943
C         42.78979        24.64238         1.76547
C         41.47295        25.29803         1.80697
C         42.76461        27.17586         0.39550
C         41.47588        26.63295         1.04585
C         42.74037        28.72308         0.54586
C         41.52276        29.29440        -0.23804
C         42.83556        31.52916        -0.00872
C         41.54256        30.82199        -0.17198
C         42.80333        32.93034         0.57461
C         41.57128        33.74385         0.07509
C         42.78266        35.96704         0.15570
C         41.55461        35.16979         0.67945
C         42.74549        37.34062         0.79744
C         41.42559        38.10681         0.58398
C         42.76907        40.23697         0.72428
C         41.56478        39.46099         1.34153
C         42.71363        41.74899         0.82458
C         41.52316        42.39392         0.77006
C         42.75953        44.55864         0.18203
C         41.42877        43.80216         0.19503
C         42.71297        46.05946         0.09110
C         41.41073        46.80948         0.17586
C         42.70074        48.86349         0.02317
C         41.36699        48.30852        -0.38292
C         43.81178        25.32476         1.55235
C         45.26233        27.21509         0.68340
C         44.09056        26.58179         0.93895
C         45.30070        28.56305        -0.06862
C         44.06009        29.39906         0.16834
C         45.36209        31.52235         0.01941
C         44.11125        30.75765         0.07748
C         45.38164        32.85613         0.30554
C         44.10860        33.65001         0.28342
C         45.36041        35.84315         0.71917
C         44.09866        35.14906         0.31542
C         45.35572        37.32310         0.87558
C         44.03856        38.06441         1.04645
C         45.23649        40.20945         0.40515
C         44.10851        39.60519         1.20604
C         45.17145        41.67496         0.03842
C         44.04987        42.47098         0.74812
C         45.23640        44.59009        -0.23431
C         43.94680        43.89365         0.20702
C         45.20146        46.10392         0.26117
C         43.99887        46.80150        -0.37245
C         43.75886        48.23302         0.07176
C         47.67145        27.17394         0.28951
C         46.62068        26.76084         0.81528
C         47.89171        28.56548        -0.13445
C         46.61897        29.37436         0.25642
C         47.91386        31.54758        -0.19014
C         46.61030        30.77306        -0.41667
C         47.92321        32.89890        -0.01490
C         46.66500        33.60943         0.34873
C         47.87391        35.93036         0.22163
C         46.65956        35.10777         0.48898
C         47.82278        37.28892         0.23693
C         46.47791        38.00441         0.12129
C         47.62271        40.14641        -0.41849
C         46.56162        39.50554         0.48273
C         47.78370        41.63955        -0.05012
C         46.50763        42.40702         0.22947
C         47.80724        44.51149        -0.11435
C         46.54216        43.85383         0.04583
C         47.59364        45.94150        -0.09650
C         46.56791        46.63369        -0.18392
C         50.55384        28.76862        -0.23735
C         49.17249        29.28493        -0.34827
C         50.40525        31.54320        -0.70718
C         49.23141        30.80252        -0.03256
C         50.42189        33.04105        -0.55368
C         49.20248        33.69582         0.05587
C         50.33759        36.01287        -0.40910
C         49.17662        35.20906         0.13895
C         50.35108        37.45207        -0.08509
C         49.09390        38.12388         0.39290
C         50.04526        40.04967        -1.14584
C         48.93854        39.45315        -0.33124
C         50.20540        41.54857        -0.65929
C         48.90127        42.35952        -0.78322
C         50.32185        44.27680        -0.64853
C         49.00484        43.82602        -0.34999
C         51.55508        29.44314        -0.58473
C         52.76533        31.71890        -1.10402
C         51.74245        30.81099        -0.84397
C         52.73843        32.98170        -1.26069
C         51.78544        33.80592        -0.40443
C         52.74021        36.22508        -0.62446
C         51.63286        35.26900        -0.76204
C         52.72941        37.38976        -0.23169
C         51.60716        38.30627         0.12432
C         52.38103        40.14603        -1.52954
C         51.38795        39.34956        -0.93843
C         52.58031        41.39480        -1.56797
C         51.49370        42.40158        -1.63383
C         51.41302        43.71219        -0.93031
O         49.49514        34.37964         1.30685
O         40.12887        32.10777         1.46666
O         48.39352        28.83879        -1.47685
O         46.87628        34.23887         1.66333
O         39.50545        39.72018         2.54014
O         41.52736        26.57946         2.50422
O         32.49289        32.12652         0.84629
O         33.46720        42.79123         1.54980
O         42.23149        46.62238         1.36337
O         47.46638        41.98377         1.28233
O         43.28973        37.41351         2.12321
O         32.44923        35.32438        -2.13816
O         33.93568        34.67083         1.04789
O         35.63708        42.16416         2.57756
O         50.71888        35.59924        -1.80826
O         45.55244        36.48380         2.03261
O         39.71638        44.38804         2.00529
O         50.11242        32.41695        -1.83307
O         42.23038        31.39149        -1.34706
O         44.23749        34.41896        -0.95885
O         37.74277        33.25274        -2.02876
H         38.40061        32.61506        -2.39379
O         30.91874        42.39626         0.94521
H         31.49133        42.87209         1.59110
O         34.78497        39.93668         1.57959
H         34.96741        40.71347         2.20770
O         39.32988        30.76331        -1.91534
H         38.51363        30.35884        -2.31717
O         32.93356        37.82996        -2.52476
H         32.63124        37.00194        -2.97425
O         34.29529        29.25759        -2.41543
H         34.28909        28.30227        -2.63862
O         44.87723        41.75338        -1.39544
H         45.59562        41.25027        -1.86284
O         34.64696        37.19517         1.55852
H         34.50229        38.09004         1.95910
O         47.10453        40.15628        -1.79618
H         47.88822        40.31658        -2.38916
O         49.26008        38.30469         1.84787
H         48.47014        38.80889         2.18298
O         37.73885        28.21162        -1.53848
H         38.45446        27.52859        -1.61174
O         33.34349        42.41619        -2.03751
H         32.77151        41.96740        -2.69535
O         34.92567        44.65816         2.80131
H         35.02494        43.69970         3.07759
O         37.18652        39.75954        -1.25340
H         37.18129        40.73035        -1.45646
O         38.50583        35.80565        -1.31286
H         38.73253        36.75744        -1.34856
O         41.63550        33.91279        -1.35748
H         41.81185        33.02187        -1.76012
O         44.05867        46.81494        -1.78132
H         44.90995        47.21710        -2.05298
O         35.22274        33.47203        -2.01444
H         36.05530        33.10771        -2.41602
O         42.55263        29.07906         1.93040
H         42.17027        28.32859         2.44071
O         46.97848        39.58544         1.87267
H         46.16954        39.74314         2.43334
O         35.60538        36.24109        -1.84096
H         35.64121        35.34859        -2.26475
O         44.50448        42.62157         2.11216
H         43.76983        42.97530         2.65676
O         41.19576        38.40760        -0.81018
H         41.67334        37.72650        -1.34949
O         30.77318        34.12817         0.88359
H         30.88426        33.29249         1.39092
O         52.20151        33.75954         0.94597
H         52.44598        32.84364         1.19196
O         46.03654        37.84059        -1.24848
H         46.48295        38.52528        -1.80931
O         49.53626        30.81812         1.38957
H         49.19523        31.64534         1.79351
O         51.72615        38.94764         1.39214
H         50.96315        38.65772         1.96131
O         45.09437        46.13017         1.65354
H         44.65035        46.96014         1.93307
O         42.64028        36.26020        -1.24339
H         42.66604        35.39823        -1.73225
O         36.67564        30.57871        -2.18451
H         35.89084        30.04154        -2.47820
O         51.04611        42.53261        -2.96842
H         51.68898        43.08138        -3.46615
O         41.90716        39.25831         2.71945
H         41.09007        39.01716         3.21249
O         34.73483        39.90730        -2.08321
H         34.28027        39.23259        -2.64562
O         46.66415        29.61797         1.66281
H         46.70365        28.75950         2.13685
O         31.63740        38.24015         0.86210
H         30.94748        38.82823         1.23410
O         39.02646        27.57049         2.55340
H         38.34597        27.25607         3.18398
O         41.67805        35.12435         2.10283
H         40.84635        34.78191         2.49014
O         36.02886        42.19933        -1.05564
H         35.35301        42.10036        -1.76925
O         36.51390        33.15655         1.45573
H         35.67237        33.41382         1.89648
O         40.47401        42.13827         2.77917
H         39.60524        42.05286         3.24986
O         38.90251        41.96215        -0.58254
H         39.57741        42.49614        -1.07532
O         46.46243        30.60203        -1.85141
H         47.28604        30.16976        -2.18951
O         37.96850        41.61456         2.91275
H         37.06728        41.79623         3.32490
O         42.78513        40.07454        -0.71412
H         43.47351        40.67320        -1.10523
O         36.39945        29.92819         1.41141
H         36.45175        29.12655         1.97426
O         41.62229        28.92961        -1.62736
H         40.99909        29.51735        -2.11797
O         45.17194        44.58589        -1.68249
H         46.00975        44.96142        -2.02800
O         49.69539        40.04807        -2.55351
H         50.39310        40.53270        -3.04941
O         41.33927        48.23266        -1.78227
H         41.33982        49.13510        -2.16104
O         48.47097        42.40004        -2.16597
H         49.22495        42.72762        -2.71370
O         44.40259        39.87573         2.59708
H         43.75857        39.34713         3.12976
O         38.08739        35.28179         1.98408
H         37.75740        34.34599         2.05496
O         45.26918        28.21412        -1.47192
H         45.46848        29.04268        -1.98088
O         50.60476        41.55667         0.66609
H         51.18293        40.78074         0.88249
O         42.75411        32.77845         2.00070
H         41.89216        32.36034         2.23899
O         41.13210        43.57225        -1.23437
H         41.92849        43.18297        -1.65859
O         37.51620        45.69386        -1.33540
H         37.44330        46.56021        -1.78782
O         39.96434        26.58996        -0.84210
H         40.82020        26.68861        -1.33177
O         42.72718        26.80281        -0.98789
H         43.49525        27.22589        -1.44652
