         290
 CSIRO Nanostructure Databank - Neutral Graphene Oxide Data Set
C          1.45784         2.02581         1.00672
C          1.36058         3.38208         0.86535
C          2.71915         1.37201         1.18070
C          2.60399         4.21182         1.09467
C          1.45113         6.41028         1.00077
C          1.37452         7.81911         0.70573
C          2.52818         5.65802         0.63971
C          2.29578         8.45193        -0.06279
C          1.12470        10.68754         0.30331
C          1.13549        12.02303         0.41388
C          2.15053         9.90471        -0.50278
C          2.19127        12.81294        -0.32207
C          1.20525        15.07905         0.35025
C          1.24141        16.53102         0.41775
C          2.26466        14.32085        -0.04320
C          2.38955        17.24152         0.19476
C          2.54862        18.68354         0.33220
C          3.91864         2.05975         0.94907
C          3.80334         3.48880         0.45063
C          5.17591         1.44459         0.95187
C          5.08158         4.31697         0.61906
C          3.66080         6.28664        -0.04283
C          3.40952         7.64877        -0.72304
C          4.86682         5.63943        -0.11141
C          4.70352         8.48076        -0.86738
C          3.50733        10.60922        -0.46726
C          3.55018        12.06050        -0.03219
C          4.68243         9.94941        -0.58674
C          4.69681        12.82273        -0.75125
C          3.50944        15.04685        -0.54005
C          3.63044        16.46879        -0.02979
C          4.77576        14.25120        -0.15964
C          4.89380        17.17722        -0.35604
C          3.68835        19.33185        -0.01319
C          4.80683        18.63697        -0.76359
C          6.35344         2.13337         0.51881
C          6.30564         3.52366         0.20810
C          7.57905         1.44415         0.35609
C          7.45364         4.15669        -0.27672
C          6.05471         6.27883        -0.72590
C          6.02111         7.77429        -0.85833
C          7.37858         5.57527        -0.70399
C          7.27790         8.51770        -0.50178
C          6.00962        10.64632        -0.27701
C          6.12312        12.15420        -0.80296
C          7.26786         9.99789        -0.89721
C          7.24612        12.83386        -0.01142
C          6.08875        14.95470        -0.40241
C          6.07853        16.37565        -0.91708
C          7.20822        14.29179         0.02841
C          7.32274        17.13021        -0.56597
C          6.16211        19.29982        -0.75548
C          7.32987        18.55434        -0.68638
C          8.72216         2.09272        -0.12923
C          8.66660         3.46552        -0.47061
C          9.99925         1.40381        -0.17222
C          9.81273         4.16871        -1.18880
C          8.63749         6.33705        -0.64329
C          8.58476         7.78831        -0.41076
C          9.87097         5.65046        -0.76081
C          9.85751         8.54320        -0.75933
C          8.53712        10.78132        -0.48451
C          8.42471        12.14697         0.11810
C          9.84639        10.04757        -0.40686
C          9.64994        12.72438         0.81918
C          8.41236        15.02969         0.48564
C          8.32011        16.55702         0.39290
C          9.68271        14.26909         0.81833
C          9.70606        17.22284         0.34440
C          8.66827        19.13974        -0.82241
C          9.79798        18.47584        -0.45976
C         11.15143         2.00618        -0.54444
C         11.22456         3.40796        -1.14803
C         12.44088         1.28030        -0.22158
C         12.30736         4.16304        -0.31870
C         11.06559         6.34646        -0.57258
C         11.04015         7.78880        -0.10949
C         12.38530         5.65541        -0.74770
C         12.33819         8.60962        -0.36109
C         11.01878        10.70716         0.23073
C         10.99071        12.07615         0.49252
C         12.27788         9.90293         0.46758
C         12.18945        12.83855         0.70666
C         10.98939        14.97979         0.74599
C         10.97034        16.46074         0.68914
C         12.19422        14.26518         0.70204
C         12.28434        17.18953         0.50520
C         11.10213        18.83259        -1.14938
C         12.34024        18.36394        -0.42185
C         13.70470         2.02764        -0.57599
C         13.65913         3.49215        -0.52940
C         14.86125         1.35447        -0.80946
C         14.81354         4.20858        -0.63087
C         13.57872         6.35389        -0.04047
C         13.63441         7.86454        -0.12551
C         14.82998         5.69514        -0.58979
C         14.80194         8.55042         0.00105
C         13.53326        10.75207         0.34123
C         13.45634        12.08750         1.06234
C         14.83071        10.03473         0.21702
C         14.75233        12.85191         0.92576
C         13.52363        15.00187         0.43803
C         13.52430        16.43728         1.01662
C         14.78008        14.21624         0.82665
C         14.80815        17.20391         0.65883
C         13.65720        18.90530        -0.83923
C         14.77626        18.33974        -0.34075
C         16.12754         2.07979        -1.19180
C         16.11542         3.49176        -0.64758
C         17.42960         1.36976        -0.89421
C         17.39756         4.24120        -0.63945
C         16.10767         6.46658        -0.65606
C         16.15194         7.97690        -0.40252
C         17.41396         5.72878        -0.76117
C         17.34464         8.48532         0.39859
C         16.00202        10.54904         1.05674
C         15.98260        12.07361         1.23582
C         17.36416         9.96485         0.65912
C         17.29550        12.82261         1.29957
C         16.06001        14.92379         0.81498
C         16.05836        16.35988         0.55983
C         17.26760        14.25843         0.97911
C         17.23556        17.05456         0.44715
C         15.82977        19.04844         0.48868
C         17.20680        18.49660         0.31666
C         18.61267         2.03252        -0.72988
C         18.68817         3.49823        -0.67283
C         19.89079         1.31753        -0.66157
C         19.84821         4.13203        -0.31943
C         18.68911         6.41849        -0.43866
C         18.63373         7.74839         0.25311
C         19.95737         5.61396        -0.30274
C         19.94398         8.50623         0.19964
C         18.54648        10.61788         0.84047
C         18.59739        12.06066         1.22737
C         19.85368         9.88540         0.83505
C         19.91038        12.80985         1.12962
C         18.56887        14.93474         0.58055
C         18.54384        16.44501         0.85851
C         19.91044        14.34534         1.11143
C         19.73401        17.13113         0.22985
C         18.35714        19.19828         0.09866
C         19.63412        18.51197        -0.06148
C         21.01981         1.93141        -0.25473
C         20.94827         3.31887         0.33238
C         22.26298         4.04333         0.47741
C         21.22028         6.27368         0.15339
C         21.16284         7.68910         0.74652
C         22.35437         5.37956         0.53170
C         22.40492         8.50807         0.43134
C         21.16862        10.62760         0.81038
C         21.11469        12.09618         0.62467
C         22.38007         9.85089         0.42154
C         22.06761        12.78123        -0.06751
C         21.00412        14.97514         0.25426
C         20.93924        16.42711         0.01995
C         21.99340        14.20421        -0.27765
C         22.05767        17.14562        -0.45767
C         20.76994        19.19893        -0.53009
C         21.97145        18.51354        -0.71488
O          9.47408        10.83629        -1.61722
O         15.21284        18.30098         1.64078
O         15.29058         6.25243        -1.86486
O          8.77201        14.71829         1.88572
O         19.42405        12.31289         2.41692
O         12.20623        18.54525         1.03761
O          7.83079         8.20534         0.78789
O          4.62416        16.81046         1.02218
O         16.77054         3.77373         0.64081
O         10.21292        17.20516         1.71777
O         14.30091        10.83227        -0.89156
O          6.58673         5.68943        -1.95775
O          6.57501        12.16933        -2.10280
O         20.95516         6.16666        -1.28201
O         11.71323         3.30911        -2.46227
O         16.55696        12.46825         2.52758
O         20.59669        10.09713         2.06745
O         17.87043         7.68168         1.50188
O         18.22037         6.32325        -1.82469
O          5.40574         8.18000        -2.12075
O          7.14187        10.04627        -2.30606
H          7.98824        10.39154        -2.68013
O         20.18333         8.76943        -1.20221
H         20.34606         7.89954        -1.65027
O          3.57325         3.41313        -0.97313
H          2.78133         2.85594        -1.12556
O         18.65190        14.73833        -0.86200
H         17.90360        15.21706        -1.27849
O          9.49901        12.32283         2.21558
H          8.90453        12.99012         2.63466
O          2.94654         7.38665        -2.07782
H          3.75890         7.25468        -2.62574
O         16.09259         2.25350        -2.64779
H         15.73036         1.43602        -3.04843
O         20.49958         3.13966         1.72358
H         19.62424         2.69605         1.69917
O          4.27818        12.87843        -2.11466
H          5.08827        12.65526        -2.66000
O          3.72050        11.91694         1.40008
H          3.84672        12.81551         1.79609
O          9.40794         4.17276        -2.56753
H         10.19921         3.79987        -3.05973
O         11.09026        18.19804        -2.43818
H         10.29914        18.49872        -2.93093
O          5.33128         4.63187         2.01100
H          4.46147         4.79014         2.45870
O         13.59130        15.18496        -1.00298
H         13.58100        14.30266        -1.43147
O          4.74979        14.18283         1.29988
H          4.89622        15.11060         1.62141
O         16.38248         8.59907        -1.69564
H         15.88208         8.07459        -2.36274
O         15.74711         9.96494         2.36011
H         16.21989        10.52383         3.02003
O         10.73561         7.67394         1.29288
H         11.53481         7.35052         1.76365
O         18.57003        16.73126         2.27886
H         19.36660        16.28211         2.65765
O          2.77399         4.25534         2.55067
H          2.75545         3.32921         2.87602
O          7.72063        16.98498         1.65347
H          8.44461        16.91726         2.32464
O         20.17892        14.74412         2.47297
H         19.82779        14.02564         3.05380
O          4.38875        18.60654        -2.16988
H          4.33356        19.53145        -2.48861
O         12.39207         8.97176        -1.76225
H         12.73594         8.19712        -2.26123
O         13.48745         6.08604         1.39202
H         14.19097         6.59103         1.85474
O         12.65262         5.72257        -2.16427
H         12.34984         4.84426        -2.56832
O          1.85602        12.73854        -1.72752
H          1.79033        11.78565        -1.98534
O         13.42378        16.31942         2.43744
H         13.47263        17.22858         2.80561
O          6.14649        10.65447         1.13395
H          5.29481        10.99655         1.52007
O          5.94353        16.30156        -2.35534
H          5.02705        15.96552        -2.54022
O         12.28654         9.47579         1.85510
H         12.41290        10.27722         2.42178
O         21.04327         7.48281         2.15942
H         20.97087         8.37203         2.58547
O         11.91125         4.02221         1.05947
H         12.51558         4.57420         1.61092
O          1.69105         9.88436        -1.88812
H          2.08299         9.07789        -2.31123
O          9.90854         8.41241        -2.18697
H         10.68524         8.92939        -2.50842
O         13.34533        11.81282         2.49839
H         13.24964        12.67054         2.96580
O          3.39126        15.22824        -1.97126
H          3.17092        14.33742        -2.35210
O         12.45684         1.07288         1.20981
H         12.29697         1.95377         1.61907
H          0.54927         1.40581         0.98449
H          0.38057         3.86510         0.74084
H          2.73984         0.29812         1.41673
H          0.62619         5.95494         1.56642
H          0.51851         8.35896         1.13120
H          0.30414        10.13433         0.78156
H          0.34634        12.53299         0.98814
H          0.25345        14.59677         0.62073
H          0.30471        17.05661         0.65504
H          1.71141        19.25219         0.76707
H          5.25491         0.38032         1.22426
H          3.75940        20.42128         0.13228
H          7.63301         0.37607         0.61457
H          6.22076        20.39462        -0.86015
H         10.03703         0.38412         0.24357
H          8.75631        20.07171        -1.40584
H         12.45226         0.26604        -0.69730
H         11.15816        19.95095        -1.28944
H         14.85896         0.25272        -0.83359
H         13.68512        19.92232        -1.26345
H         17.43918         0.26951        -0.95828
H         15.76002        20.15425         0.59478
H         19.90958         0.26613        -0.98705
H         18.33342        20.29385        -0.00593
H         21.97323         1.38328        -0.21608
H         23.14462         3.42787         0.71520
H         23.31989         5.85602         0.76170
H         23.34234         7.98067         0.19843
H         23.30088        10.40705         0.19100
H         22.93504        12.25322        -0.48615
H         22.77940        14.65889        -0.89637
H         23.01755        16.63387        -0.61182
H         20.70581        20.27435        -0.74902
H         22.85849        19.05456        -1.07288
