         204
 CSIRO Nanostructure Databank - Neutral Graphene Oxide Data Set
C        -11.11171         0.64270         0.33739
C         -9.89117         1.42228         0.17082
C         -8.64850         0.69520        -0.00181
C         -7.41491         1.42517         0.01386
C         -6.17918         0.72683        -0.12212
C         -4.96613         1.45119        -0.11462
C         -3.67653         0.77560        -0.48544
C         -2.45688         1.45110         0.08922
C         -1.23254         0.71179         0.17884
C         -0.00103         1.37540         0.45410
C          1.21410         0.68011         0.47672
C          2.47840         1.38974         0.59384
C          3.64205         0.69780         0.89354
C          4.93264         1.38168         0.62262
C          6.20243         1.02304         1.21473
C          7.41156         1.51947         0.77552
C          8.66575         0.77903         1.11580
C          9.93978         1.48653         0.73196
C         11.14631         0.66887         0.47078
C         -9.89123         2.80216         0.24598
C         -8.67357         3.56202         0.17402
C         -7.42885         2.84527         0.09908
C         -6.20467         3.56599         0.10490
C         -4.96828         2.85258         0.03127
C         -3.72667         3.56826         0.13228
C         -2.50628         2.83287         0.27131
C         -1.29050         3.58201         0.63279
C          0.01329         2.82676         0.72046
C          1.26373         3.56698         0.46781
C          2.48126         2.84476         0.37580
C          3.67723         3.55215         0.12448
C          4.95316         2.82748         0.05003
C          6.22286         3.54367         0.08637
C          7.41868         2.85417         0.21920
C          8.69365         3.55169        -0.01924
C          9.89130         2.83839         0.15918
C         -8.66137         4.96467         0.18925
C         -7.44682         5.70027         0.14665
C         -6.20334         4.98977         0.13703
C         -4.96617         5.70105         0.13089
C         -3.73028         4.98809         0.18105
C         -2.49183         5.71815         0.21036
C         -1.26116         5.02712         0.34817
C         -0.03428         5.70843         0.26454
C          1.23181         4.96931         0.28759
C          2.44406         5.64537         0.00489
C          3.67587         4.96116        -0.04513
C          4.91554         5.69571        -0.26209
C          6.24561         5.04869         0.07067
C          7.37050         5.55784        -0.83190
C          8.67052         4.87636        -0.48203
C         -7.42183         7.12312         0.10154
C         -6.21852         7.83179         0.04427
C         -4.96541         7.12667         0.07599
C         -3.73924         7.84015         0.03127
C         -2.49898         7.13910         0.10329
C         -1.26025         7.84812         0.08143
C         -0.05564         7.12663         0.12961
C          1.22302         7.85628         0.11395
C          2.40528         7.07452        -0.34536
C          3.67168         7.79845        -0.68743
C          4.93241         7.04008        -0.55092
C          6.20054         7.76057        -0.71085
C          7.37960         7.07201        -0.81075
C         -6.18318         9.27182        -0.05007
C         -5.00383         9.95601        -0.12403
C         -3.73087         9.27508        -0.08690
C         -2.52226         9.96401        -0.17103
C         -1.25382         9.29697        -0.09187
C         -0.06026        10.00261        -0.22845
C          1.24339         9.35474        -0.06153
C          2.52359         9.99420        -0.46740
C          3.68433         9.28678        -0.61776
C          4.98085         9.92131        -0.77446
C          6.14219         9.21250        -0.81407
C        -11.13037        -0.69574         0.16521
C         -9.93691        -1.43376        -0.38953
C         -8.64235        -0.69991        -0.13638
C         -7.41047        -1.42205        -0.17312
C         -6.17151        -0.71121        -0.21034
C         -4.94205        -1.42390        -0.29494
C         -3.67917        -0.71726        -0.32221
C         -2.47189        -1.38488        -0.34165
C         -1.22449        -0.69323        -0.09863
C         -0.00762        -1.41529        -0.01692
C          1.21861        -0.74434         0.29744
C          2.41280        -1.47909         0.48783
C          3.59190        -0.78827         1.05987
C          4.87131        -1.66557         1.23536
C          6.19340        -1.09060         1.49084
C          7.38201        -1.54589         0.98529
C          8.68621        -0.79799         1.29113
C          9.84873        -1.43200         0.52732
C         11.08152        -0.67675         0.36524
C         -9.87399        -2.88255        -0.00941
C         -8.66572        -3.57463         0.01270
C         -7.41219        -2.84837        -0.12032
C         -6.18491        -3.55676        -0.11407
C         -4.95005        -2.84079        -0.23120
C         -3.71861        -3.57137        -0.32307
C         -2.46542        -2.83690        -0.74662
C         -1.18499        -3.56426        -0.43400
C          0.01681        -2.84471        -0.20870
C          1.25154        -3.54376        -0.13865
C          2.43962        -2.88363         0.24155
C          3.69182        -3.62146         0.25956
C          4.88561        -2.99773         0.61846
C          6.16003        -3.62336         0.37337
C          7.37896        -2.90135         0.47468
C          8.61064        -3.55075         0.16022
C          9.81407        -2.74085         0.13232
C         -8.62427        -4.99217         0.15594
C         -7.40800        -5.70842         0.11180
C         -6.17297        -4.98506        -0.01934
C         -4.93971        -5.69354        -0.04852
C         -3.71704        -4.94943        -0.24045
C         -2.47197        -5.69153        -0.54420
C         -1.17930        -4.98186        -0.50545
C          0.01427        -5.71178        -0.48333
C          1.29318        -4.94846        -0.68797
C          2.52620        -5.71990        -0.32953
C          3.71586        -5.02428        -0.07966
C          4.96277        -5.72744        -0.08381
C          6.18571        -5.00985         0.03627
C          7.43320        -5.68710        -0.14477
C          8.62947        -4.92045        -0.12510
C         -7.36648        -7.12884         0.17514
C         -6.14722        -7.82385         0.15566
C         -4.92862        -7.10536         0.06645
C         -3.62556        -7.83194         0.29356
C         -2.45816        -7.17629        -0.39996
C         -1.16383        -7.87738        -0.31507
C          0.03534        -7.14948        -0.43030
C          1.28117        -7.85843        -0.42194
C          2.51938        -7.13752        -0.38912
C          3.75160        -7.84915        -0.35079
C          4.97786        -7.13473        -0.27564
C          6.23502        -7.82643        -0.35901
C          7.42812        -7.09882        -0.33445
C         -6.09964        -9.28008         0.18202
C         -4.93333        -9.97950         0.08262
C         -3.64717        -9.31980         0.02185
C         -2.45929        -9.98503        -0.14758
C         -1.17320        -9.29838        -0.22402
C          0.04659        -9.98428        -0.28524
C          1.28456        -9.28415        -0.37519
C          2.53421        -9.97412        -0.41175
C          3.74818        -9.28437        -0.41913
C          5.02508        -9.95797        -0.47875
C          6.20277        -9.26567        -0.47316
O          1.42830         8.70097         1.28706
O         -0.70672         3.22535         1.94108
O         -2.51725        -2.81313        -2.22452
H         -2.68895        -3.73175        -2.52596
O        -10.12581        -1.41594        -1.86383
H        -10.11540        -0.47449        -2.14044
O         -2.68891        -6.58437        -1.71678
O         -3.33394        -7.68027         1.72624
H         -4.04081        -8.14475         2.22227
O          7.04108         5.15325        -2.19795
H          7.75265         5.47359        -2.79020
O         -3.56276         0.97514        -1.95291
H         -3.61402         1.94087        -2.11889
O          6.58535         5.49199         1.41854
H          5.91051         5.14595         2.03863
O          1.39276        -4.76176        -2.16207
H          0.58271        -4.28541        -2.44699
O          5.01285         1.65978        -0.82394
O          8.96147        -1.04045         2.68819
H          9.42612        -0.23871         3.02881
O          3.94425        -1.40723         2.34176
O          6.19300         0.08544         2.25508
O          2.76802         7.31351        -1.75368
O          9.45705         1.42525         2.16534
H         11.98662        -1.24310         0.09369
H         12.09752         1.19410         0.29669
H         10.84314         3.30181        -0.14373
H          9.62205         5.38020        -0.71664
H          8.32041         7.61451        -0.99757
H          7.09699         9.74910        -0.92259
H          5.01126        11.01988        -0.83373
H          2.55441        11.09508        -0.50146
H         -0.09196        11.07212        -0.48660
H         -2.53322        11.05891        -0.28280
H         -5.00717        11.05306        -0.20653
H         -7.13857         9.81690        -0.07351
H         -8.37467         7.67386         0.09195
H         -9.61551         5.51193         0.22567
H        -10.84299         3.33953         0.37632
H        -12.02268         1.17661         0.64953
H        -12.06580        -1.25853         0.30586
H        -10.81913        -3.43761         0.09335
H         -9.57079        -5.54441         0.25568
H         -8.31002        -7.69050         0.24608
H         -7.05636        -9.82133         0.22863
H         -4.95750       -11.07897         0.03365
H         -2.46214       -11.08219        -0.24760
H          0.05623       -11.08430        -0.25334
H          2.53439       -11.07460        -0.42386
H          5.03325       -11.05621        -0.54538
H          7.15880        -9.80682        -0.53534
H          8.38838        -7.62710        -0.43509
H          9.59075        -5.41907        -0.32069
H         10.72750        -3.19822        -0.28205
