         210
 CSIRO Nanostructure Databank - Neutral Graphene Oxide Data Set
C         30.69101        31.93839         2.49627
C         30.67741        33.15688         2.13936
C         30.50319        36.16205         1.07653
C         30.49959        37.36653         0.72628
C         30.46482        40.39324         0.04218
C         30.37179        41.62463        -0.16988
C         33.08764        29.09670         2.30421
C         32.03019        29.69877         2.57980
C         32.89172        31.70928         1.59186
C         31.76574        31.07009         2.27248
C         32.83024        33.11440         1.28285
C         31.66600        33.93490         1.53563
C         32.80157        35.99899         0.65554
C         31.63368        35.30874         1.09711
C         32.82653        37.39750         0.35646
C         31.61152        38.15944         0.36636
C         32.79981        40.28021        -0.17126
C         31.60004        39.55221         0.07847
C         32.77190        41.71574        -0.39348
C         31.50528        42.44550        -0.39182
C         32.76556        44.39686        -0.74903
C         31.65237        43.83262        -0.61097
C         35.71352        27.50718         1.50077
C         35.37020        28.84171         1.22874
C         34.26218        29.55496         1.63295
C         35.12321        31.57032         0.52799
C         34.09522        30.97113         1.28228
C         34.88155        32.87607         0.06873
C         33.90671        33.72637         0.58332
C         35.35749        35.96318         0.38357
C         34.06394        35.21704         0.62519
C         35.31907        37.44021         0.17074
C         34.07126        38.12090         0.11907
C         35.27522        40.22841        -0.29784
C         34.04635        39.53694        -0.12741
C         35.26788        41.66586        -0.68405
C         34.00069        42.42658        -0.59701
C         35.30016        44.57668        -0.76218
C         34.06311        43.83895        -0.76379
C         35.45932        45.98048        -0.69865
C         37.98106        27.45714         0.90222
C         36.75297        26.82904         1.33619
C         37.87147        28.76826         0.46790
C         36.49308        29.43239         0.29801
C         37.81728        31.69003         0.19689
C         36.51000        30.94834         0.45983
C         37.91752        33.15397        -0.06257
C         36.76408        33.97873        -0.29806
C         37.90766        35.99669         0.45185
C         36.64695        35.28811         0.05606
C         37.84167        37.46422         0.08482
C         36.54614        38.15208         0.10006
C         37.75288        40.33007        -0.01744
C         36.50005        39.55869        -0.12527
C         37.82304        41.75133        -0.34018
C         36.57405        42.44936        -0.70657
C         37.77059        44.63601        -0.39869
C         36.55872        43.92601        -0.62091
C         37.82241        46.06031        -0.34224
C         36.53443        46.61063        -0.53568
C         40.31567        24.63734         0.44796
C         39.32067        25.27184         0.82431
C         40.24096        27.28131        -0.09918
C         39.30920        26.77437         1.03978
C         40.30899        28.79317        -0.05421
C         39.09376        29.50079         0.09742
C         40.29215        31.61570        -0.28678
C         39.08514        30.92555        -0.04134
C         40.35677        33.08174        -0.28222
C         39.14388        33.81823        -0.04151
C         40.30050        35.94392        -0.35970
C         39.14429        35.26523        -0.05160
C         40.22461        37.40510        -0.73532
C         39.02247        38.12072        -0.15924
C         40.31112        40.31923        -0.36143
C         39.09040        39.57725        -0.01137
C         40.29515        41.71109        -0.37753
C         39.03670        42.41496        -0.31838
C         40.33808        44.64489        -0.08829
C         39.02617        43.89174        -0.14408
C         40.32994        46.11555        -0.21423
C         39.06770        46.77718        -0.22170
C         40.32155        48.84089        -0.16254
C         39.24849        48.17579        -0.21388
C         42.82634        24.53584        -0.28294
C         41.56745        25.13240        -0.05603
C         42.77443        27.29172        -0.40780
C         41.57748        26.55981        -0.17198
C         42.78027        28.74200        -0.42536
C         41.53530        29.46585        -0.29758
C         42.75201        31.58115        -0.63270
C         41.52017        30.88713        -0.42714
C         42.69579        33.00583        -1.14768
C         41.52444        33.78260        -0.57582
C         42.72169        35.96877        -0.73541
C         41.53284        35.22765        -0.59506
C         42.75604        37.40481        -0.64107
C         41.52434        38.16018        -0.59397
C         42.77617        40.29081        -0.73167
C         41.51692        39.54850        -0.57574
C         42.81522        41.74612        -0.49893
C         41.53869        42.48770        -0.80470
C         42.79137        44.62970        -0.40001
C         41.59540        43.92582        -0.35010
C         42.80526        46.05607        -0.33729
C         41.58427        46.80974        -0.23214
C         42.93234        48.78891        -0.14451
C         41.60089        48.27300        -0.15337
C         43.85929        25.21299        -0.52993
C         45.23471        27.32897        -0.78632
C         44.02675        26.60827        -0.59279
C         45.26934        28.76035        -0.70757
C         44.00236        29.45515        -0.52397
C         45.21669        31.65997        -0.46391
C         43.95903        30.89167        -0.57674
C         45.26912        33.08834        -0.72513
C         44.02301        33.77380        -1.09394
C         45.25163        35.94590        -0.50417
C         44.01164        35.27613        -0.93849
C         45.22364        37.34643        -0.30482
C         43.99813        38.06041        -0.50579
C         45.26668        40.23660        -0.16193
C         44.07644        39.51810        -0.64900
C         45.23175        41.64825        -0.03588
C         44.01316        42.39062        -0.33311
C         45.25763        44.54186         0.09210
C         44.10556        43.87724        -0.63527
C         45.24884        45.94697         0.12746
C         44.18497        46.72408        -0.58724
C         43.99444        48.14632        -0.13191
C         47.58566        27.40654        -1.29767
C         46.50971        26.80015        -1.08633
C         47.72951        28.81865        -1.27530
C         46.50433        29.46409        -0.91093
C         47.70993        31.71133        -1.01072
C         46.55329        30.90653        -0.61245
C         47.75709        33.11018        -0.70148
C         46.48408        33.79032        -0.59794
C         47.66168        35.92239        -0.07423
C         46.46452        35.22977        -0.43109
C         47.62707        37.31780         0.15634
C         46.43078        38.04888         0.00596
C         47.56431        40.16680         0.70288
C         46.41777        39.49084         0.16784
C         47.50189        41.58291         0.94088
C         46.36455        42.33012         0.51044
C         47.42298        44.40105         1.33025
C         46.32424        43.76838         0.65367
C         47.27186        45.80674         1.38374
C         46.33857        46.46210         0.85820
C         50.27408        29.25152        -1.66478
C         48.89222        29.59744        -1.59277
C         50.59661        32.02631        -1.08325
C         48.75286        31.00564        -1.63661
C         50.28478        33.18504        -0.33019
C         48.97840        33.83734        -0.40528
C         50.00098        35.79939         0.74799
C         48.89642        35.17476         0.06009
C         49.94771        37.18791         1.08773
C         48.91959        38.05969         0.39860
C         49.80228        40.05400         1.72005
C         48.73303        39.43253         1.01781
C         49.74440        41.46224         2.04078
C         48.60683        42.22569         1.59831
C         49.65058        44.11170         2.51880
C         48.51934        43.64453         1.81790
C         51.35383        29.79424        -1.33861
C         52.52097        31.63097         0.17359
C         51.63635        31.08395        -0.79654
C         52.32997        32.74777         0.72116
C         51.26355        33.67680         0.60244
C         52.01338        35.69037         1.97619
C         51.11388        34.97183         1.15130
C         51.95599        36.90599         2.27097
C         50.95370        37.82518         1.85530
C         51.86312        39.99447         2.82647
C         50.92071        39.23025         2.12613
C         51.88680        41.22197         3.11202
C         50.84021        42.10440         2.76146
C         50.65787        43.49773         2.94767
O         49.79155        31.76181        -2.21043
O         35.98992        41.91251        -1.95051
O         34.93860        35.60320         1.76541
O         44.16343        34.64241        -2.27855
O         37.30980        31.40037         1.58618
O         46.01151        31.25180         0.69978
O         43.53785        39.95623        -1.95382
O         35.69701        33.35715        -0.94820
O         39.63719        44.21253         1.16255
O         38.47099        40.03006         1.23280
O         49.46742        38.32868        -0.94533
H         50.31233        38.81437        -0.83403
O         44.37917        43.94040        -2.05998
H         43.61233        43.53479        -2.52252
O         39.87609        27.07604         2.30009
H         39.21605        26.89475         3.00078
O         44.46795        46.70756        -1.97900
H         43.76675        47.19819        -2.45448
O         39.52901        26.95759        -1.32744
H         40.09642        27.20429        -2.08714
O         42.37515        32.82876        -2.56340
H         42.78850        33.58991        -3.03770
O         36.06816        29.17323        -1.05520
H         36.12447        28.20751        -1.21748
O         41.47257        42.57127        -2.27950
H         41.64604        41.67185        -2.63551
O         39.95627        37.39708        -2.18733
H         40.74943        37.02794        -2.63217
O         37.99427        35.97686         1.90995
H         38.62863        36.66800         2.19360
