         260
 CSIRO Nanostructure Databank - Neutral Graphene Oxide Data Set
C         30.31556        31.96677        -0.20097
C         30.37231        33.19387         0.00648
C         30.25887        36.20074         0.68916
C         30.39559        37.43287         0.56641
C         30.44169        40.51706         0.18498
C         30.40737        41.75112         0.28102
C         32.55167        28.91151         0.16732
C         31.55584        29.64309        -0.14042
C         32.53652        31.61238         0.59870
C         31.37632        31.01789        -0.00683
C         32.54946        33.04168         1.01126
C         31.16963        33.81498         1.11141
C         32.69540        36.05472         1.02795
C         31.34137        35.31656         1.12339
C         32.74248        37.48771         0.57886
C         31.57089        38.19801         0.29647
C         32.89151        40.36972         0.28965
C         31.58383        39.61896        -0.03185
C         32.82952        41.80912         0.76742
C         31.48728        42.57961         0.83033
C         32.86259        44.54325         0.62934
C         31.74127        44.01494         0.63977
C         35.85632        26.84254        -0.01562
C         35.73081        28.20985         0.29263
C         33.73626        29.45263         0.69380
C         34.98860        31.59693         0.97429
C         33.72531        30.87518         0.83999
C         35.15765        32.94614         0.78147
C         33.89973        33.75103         0.94699
C         35.17364        35.87192         0.23127
C         33.89700        35.22280         0.65076
C         35.33556        37.37967         0.72530
C         34.02153        38.16905         0.55236
C         35.39574        40.24905         0.76498
C         34.08520        39.55103         0.59176
C         35.43665        41.76821         0.82930
C         34.15585        42.55049         0.82536
C         35.35137        44.65455         0.15888
C         34.19510        44.03211         0.50004
C         35.61450        46.03588        -0.09716
C         37.83298        26.96717        -1.41241
C         36.76120        26.34490        -0.73813
C         37.71298        28.37675        -1.20008
C         36.78333        29.02922        -0.29284
C         37.98511        31.40378         0.10857
C         36.90566        30.39200         0.17206
C         37.81139        32.91115         0.52489
C         36.50515        33.70489         0.86874
C         37.75118        35.88486         0.07972
C         36.48322        35.02023        -0.05416
C         37.75748        37.25371        -0.04666
C         36.46518        38.04705        -0.14102
C         37.81659        40.24767        -0.15456
C         36.62487        39.48864         0.36498
C         37.85830        41.73761        -0.13857
C         36.77414        42.52068         0.60153
C         37.96544        44.63964         0.01065
C         36.62880        43.86659        -0.16784
C         37.99690        46.16521        -0.20331
C         36.62756        46.65401        -0.47321
C         40.59549        24.35316        -2.48981
C         39.53828        25.12276        -2.17622
C         40.77019        27.61771        -1.13122
C         38.98189        26.35441        -2.04662
C         40.63860        29.00169        -0.71732
C         39.54537        29.74106        -1.06177
C         40.44610        31.70780         0.16252
C         39.30985        31.15743        -0.65924
C         40.32437        33.11663         0.41153
C         39.01685        33.76620         0.23191
C         40.34060        35.77020        -0.26703
C         38.98904        35.12887         0.05302
C         40.31714        37.27771        -0.46126
C         39.02183        38.00213        -0.34457
C         40.38291        40.23030        -0.33868
C         39.10590        39.48719        -0.12090
C         40.33157        41.67098        -0.84930
C         39.15569        42.47210        -0.30838
C         40.48817        44.55789        -0.47131
C         39.19349        43.83704        -0.28366
C         40.50705        46.05803        -0.70526
C         39.19084        46.78209        -0.78326
C         40.33980        48.43754        -2.15903
C         39.33693        47.88527        -1.56424
C         43.01801        24.83033        -1.55022
C         41.58704        24.69775        -1.52629
C         42.75979        27.22114         0.30866
C         41.53592        26.74572        -0.39222
C         42.76247        28.68892         0.68307
C         41.60320        29.53545         0.26888
C         42.70766        31.61771         1.19746
C         41.57475        30.99938         0.48422
C         42.66737        33.15096         1.24675
C         41.43520        33.82544         0.80839
C         42.64249        36.06333         0.97671
C         41.38201        35.29466         0.73100
C         42.79000        37.41568         0.33757
C         41.63411        38.02229        -0.37178
C         42.85883        40.27845        -0.10673
C         41.67321        39.51002        -0.70530
C         42.83896        41.71161        -0.41051
C         41.68048        42.36457        -0.71204
C         42.97284        44.56159        -0.84518
C         41.67228        43.81639        -1.11841
C         42.92610        45.98351        -1.17171
C         41.71421        46.63418        -1.37354
C         42.90583        48.29935        -2.60075
C         41.61142        47.90320        -2.13422
C         43.89509        25.46888        -0.95439
C         45.33817        27.39118         0.07396
C         44.11733        26.54029         0.01753
C         45.23756        28.78132         0.14205
C         44.10572        29.32925         1.03973
C         45.21732        31.70091         0.72195
C         44.03692        30.88222         1.13546
C         45.09625        33.18676         0.54974
C         43.92597        33.92517         1.08733
C         45.14808        36.09079         0.82589
C         43.91030        35.29109         1.03725
C         45.13319        37.51482         1.30974
C         43.89945        38.26757         0.88825
C         45.20225        40.44861         0.70294
C         43.95108        39.70125         0.50426
C         45.28997        41.74422         0.25826
C         44.18819        42.38061        -0.59297
C         45.38672        44.68896        -0.16765
C         44.13452        43.90317        -0.54739
C         45.48570        46.06639        -0.93445
C         44.22730        46.70388        -1.41203
C         44.01220        47.76393        -2.41043
C         47.70367        27.56291         0.60906
C         46.71177        26.96078         0.15203
C         48.09935        28.96293         0.73971
C         46.46059        29.57853        -0.03337
C         47.55332        31.82265        -0.21703
C         46.23340        31.07311        -0.21249
C         47.62345        33.14321         0.09052
C         46.37543        33.92601         0.26869
C         47.72446        36.01390         1.02519
C         46.44003        35.40197         0.54792
C         47.75102        37.48104         1.39676
C         46.44266        38.25448         1.45494
C         47.76166        40.36036         0.98151
C         46.43276        39.73564         1.20892
C         47.68034        41.86082         1.15894
C         46.61316        42.43329         0.22872
C         47.98756        44.61339        -0.09747
C         46.68051        43.86181        -0.19379
C         47.85529        45.73099        -0.91426
C         46.85122        46.31175        -1.42607
C         49.85508        29.00559        -1.15205
C         48.56459        29.50838        -0.61991
C         50.06748        31.67597        -0.42494
C         48.72004        31.07892        -0.83414
C         50.08786        33.20690        -0.52053
C         48.92885        33.85574         0.18907
C         50.22709        36.11904         0.41052
C         48.99524        35.28347         0.64505
C         50.29217        37.39746         1.28701
C         49.02877        38.22886         1.22352
C         50.16533        40.47499         0.67988
C         48.96302        39.62345         1.01698
C         50.24548        41.76433         1.53155
C         49.01003        42.64435         1.17745
C         50.54968        44.36307         0.31455
C         49.13995        44.06442         0.59449
C         50.98770        29.52141        -1.12418
C         52.46815        31.76137        -0.83415
C         51.36803        30.94052        -1.40823
C         52.50192        32.98668        -0.66329
C         51.39037        33.96692        -0.60207
C         52.64697        36.01094         0.46483
C         51.45371        35.40222        -0.14446
C         52.69118        37.03983         1.13923
C         51.66508        37.86430         1.81307
C         52.48022        40.35742         2.11067
C         52.01341        39.21915         2.17175
C         52.72477        41.70775         1.85462
C         51.67095        42.43448         1.41139
C         51.47154        43.74011         0.89095
O         41.65734        28.89592         1.61855
O         38.56518        29.23123        -1.93739
O         35.70242        37.34044         2.02565
O         42.71158        37.34537        -1.11966
O         45.06035        31.30950         2.09836
O         41.61062        35.98259         1.99924
O         38.19052        31.90094         1.48604
O         32.43050        40.11369        -1.08988
O         40.82279        45.47368         0.60162
O         46.92641        42.78939        -1.15877
O         50.85051        40.26132        -0.29563
O         45.59123        31.18052        -1.51358
O         50.66165        36.30139        -0.96240
O         37.49867        41.00640        -1.36705
O         45.41978        33.63293        -0.79829
O         34.18328        35.60908        -0.75208
O         40.03672        27.30186        -2.29008
O         45.75831        36.12853        -0.52485
O         36.31611        39.66283         1.75712
O         50.78400        37.09655         2.64275
O         48.88760        43.80021         2.02389
O         42.46784        32.31638         2.44162
O         49.26407        34.18317         1.58343
O         41.19946        25.36161        -0.35956
O         36.04250        30.69805         1.19447
O         44.87935        47.13813        -0.17354
O         34.84490        42.25180         2.08368
O         38.10435        45.57020         1.11097
O         33.28140        33.36259         2.21848
O         36.45768        34.59042        -1.34896
O         32.04622        35.79176         2.29819
O         39.57882        37.63910        -1.67243
O         46.37750        39.17796         2.57690
O         47.74734        36.41444         2.41988
O         43.38600        26.32299         1.25436
O         32.06001        42.01632         2.00857
O         39.94025        39.93999         1.00881
O         44.14466        37.89534         2.28724
O         34.78455        28.66644         1.16334
O         50.52557        33.78986        -1.76458
O         40.06062        41.58703        -2.28300
H         39.12373        41.28295        -2.38822
O         48.62218        29.39649         1.90144
H         49.20861        30.18289         1.76798
O         41.45276        43.88642        -2.55158
H         40.99289        43.05456        -2.83079
O         41.84643        39.61866        -2.13258
H         42.34570        38.82442        -2.42914
O         36.06047        38.11410        -1.51109
H         36.11971        37.21785        -1.90913
O         47.09371        42.04177         2.47223
H         47.61834        41.52218         3.11948
O         30.58142        33.43726         2.34422
H         30.90838        34.04634         3.04111
O         44.55270        42.06968        -1.97579
H         44.21596        41.17447        -2.19322
O         40.77752        35.20358        -1.52438
H         40.25197        35.63559        -2.23390
O         36.52909        43.53652        -1.56738
H         36.30006        44.34771        -2.06890
O         51.25176        31.23600        -2.73993
H         50.32250        31.08551        -3.03455
O         47.26998        29.21912        -1.27218
H         46.04086        30.54419        -2.11382
O         50.29505        31.32074         0.93579
H         51.15186        31.69550         1.23602
O         37.34006        42.79029         1.88386
H         36.60907        42.84709         2.54238
O         39.24915        31.92841        -1.88300
H         38.77380        31.40251        -2.56163
O         48.60709        31.25882        -2.26325
H         47.87832        30.67459        -2.57356
O         45.25717        45.01546         1.23088
H         44.76402        45.86587         1.30574
O         44.46073        28.84686         2.34599
H         43.81018        29.19345         2.99303
O         36.65837        34.15157         2.21087
H         36.81413        33.37999         2.79585
O         50.01268        41.38330         2.88278
H         50.01273        42.19444         3.43596
