         324
 CSIRO Nanostructure Databank - Neutral Graphene Oxide Data Set
C         30.43628        57.28229         0.76120
C         30.51656        58.66394         0.88913
C         29.39651        59.46528         1.21248
C         30.67029        61.53053         0.92002
C         29.49287        60.86265         1.25882
C         32.74274        52.90457         0.60128
C         32.74707        54.30651         0.44171
C         31.56489        55.08531         0.59070
C         32.80851        57.12987         0.04847
C         31.59172        56.47877         0.46132
C         32.74379        58.61295        -0.24399
C         31.88246        59.31943         0.80158
C         32.98397        61.45002         0.09752
C         31.84418        60.81518         0.55874
C         35.17112        48.60755         0.88723
C         35.18180        50.01651         0.80317
C         33.97083        50.75028         0.74055
C         35.18985        52.86595         0.41210
C         33.94509        52.15836         0.58186
C         35.18456        54.24977         0.10994
C         33.98333        54.97947         0.12979
C         35.22689        57.08159        -0.44817
C         33.97266        56.39904        -0.12580
C         35.21396        58.52581        -0.67158
C         34.08974        59.27732        -0.41650
C         35.35374        61.38982        -0.57353
C         34.15784        60.72858        -0.34220
C         37.76469        44.25855         1.00653
C         37.70685        45.67473         0.93734
C         36.47048        46.37675         0.90023
C         37.71525        48.61821         1.10403
C         36.36385        47.81333         1.11888
C         37.70064        50.08079         0.84397
C         36.43370        50.75898         0.75120
C         37.66856        52.90922         0.71421
C         36.41535        52.14610         0.56136
C         37.68181        54.39267         0.38512
C         36.46370        54.90127        -0.36065
C         37.70155        57.14630        -0.54038
C         36.41321        56.39945        -0.42894
C         37.65044        58.32229        -1.49474
C         36.41449        59.17826        -1.23285
C         37.83832        61.30112        -1.19348
C         36.49719        60.69605        -1.16860
C         40.31889        40.03414         1.00794
C         40.28658        41.45720         1.09810
C         39.05706        42.15220         1.08060
C         40.22786        44.29593         0.81817
C         39.00093        43.56592         0.98344
C         40.18761        45.71747         0.67838
C         38.94417        46.38629         0.77492
C         40.16197        48.60479         0.45874
C         38.88715        47.84510         0.61423
C         40.21652        50.01949         0.97330
C         38.91494        50.76594         0.76836
C         40.14740        52.93213         0.65626
C         38.95362        52.20103         0.71319
C         40.15397        54.35142         0.38598
C         38.98051        55.03662         0.14585
C         40.29738        57.04315        -0.72017
C         38.99799        56.46467        -0.26210
C         40.31073        58.38250        -1.39991
C         38.99122        59.10481        -1.59439
C         40.25593        61.27971        -1.29151
C         39.00026        60.59219        -1.41633
C         42.71858        35.86364         0.06854
C         42.73715        37.22977         0.28448
C         41.52267        37.96713         0.43998
C         42.80952        39.95627         1.13810
C         41.51416        39.30740         0.85068
C         42.79882        41.54157         1.22528
C         41.50691        42.20799         1.04440
C         42.70727        44.31585         0.59186
C         41.47813        43.60155         0.81654
C         42.67035        45.72187         0.39218
C         41.42259        46.43585         0.46928
C         42.59123        48.59217         0.16841
C         41.43048        47.85512         0.40996
C         42.59309        50.03834         0.14353
C         41.42493        50.74203         0.44176
C         42.69595        52.93083         0.41237
C         41.43343        52.19739         0.65676
C         42.70155        54.40127         0.31569
C         41.42290        55.17552         0.55132
C         42.79385        57.06342        -0.61279
C         41.43805        56.46087        -0.27579
C         42.76805        58.57062        -0.64478
C         41.64535        59.17367        -1.44978
C         42.68177        61.39307        -0.94176
C         41.49992        60.65854        -1.18899
C         45.02716        33.12575        -0.96589
C         43.90114        33.72055        -0.50673
C         45.21803        35.83451        -0.12255
C         43.96794        35.04703         0.19547
C         45.24093        37.21812         0.08023
C         44.01597        37.94054         0.35417
C         45.33036        39.99148         0.81142
C         44.04753        39.28009         0.72910
C         45.30988        41.56579         0.90014
C         44.02298        42.25554         0.87910
C         45.17314        44.34876         0.23039
C         43.96322        43.62293         0.52784
C         45.12255        45.75127         0.00787
C         43.87398        46.41435         0.08442
C         45.04897        48.60470        -0.51333
C         43.78780        47.84503        -0.23536
C         45.03175        50.07128        -0.32386
C         43.83818        50.73857        -0.11959
C         45.17638        52.85677         0.12677
C         43.83176        52.24191        -0.30941
C         45.16849        54.36984         0.08202
C         43.90662        55.05046         0.26194
C         45.17345        57.22560         0.23208
C         43.84942        56.54869         0.37164
C         45.06718        58.70078         0.28832
C         43.86669        59.31671        -0.33755
C         45.12080        61.46677        -0.53710
C         43.91120        60.75933        -0.60676
C         46.29946        33.79266        -0.89260
C         47.74539        35.79581        -0.57671
C         46.39632        35.11458        -0.50952
C         47.72105        37.25749        -0.20081
C         46.49833        37.94225         0.02291
C         47.73820        40.06973         0.09744
C         46.53683        39.33522         0.27356
C         47.63915        41.52174         0.00489
C         46.48437        42.25880         0.34953
C         47.61167        44.38228        -0.26420
C         46.42375        43.65994         0.09671
C         47.59773        45.81680        -0.41964
C         46.34644        46.48368        -0.28215
C         47.49716        48.58724        -0.84623
C         46.33028        47.87431        -0.49158
C         47.26499        49.95929        -1.22158
C         46.24262        50.75479        -0.71248
C         47.64270        53.01388        -0.67011
C         46.31454        52.23451        -0.66850
C         47.64448        54.41114        -0.12944
C         46.36468        55.07677         0.05033
C         47.61919        57.23374         0.50032
C         46.34678        56.52596         0.25419
C         47.60577        58.72964         0.57092
C         46.32550        59.49816         0.40719
C         47.58348        61.54187        -0.15841
C         46.37467        60.88436        -0.13429
C         48.92621        37.94199        -0.06389
C         50.28225        39.98443         0.22531
C         48.98368        39.35250         0.03500
C         50.55147        41.22858        -0.32311
C         48.67058        42.26086        -0.61796
C         50.10052        44.28898        -0.83560
C         48.78222        43.65005        -0.55501
C         50.07725        45.80975        -0.86592
C         48.79292        46.54396        -0.70138
C         50.07074        48.70422        -0.86454
C         48.79444        47.95895        -0.85721
C         50.17621        50.11169        -0.88883
C         49.09308        51.01081        -1.22822
C         50.11760        52.86898        -0.08762
C         48.91884        52.26905        -0.69043
C         50.11421        54.35357         0.19280
C         48.84231        55.09742         0.05964
C         50.10632        57.21267         0.38266
C         48.90570        56.52558         0.28862
C         50.12006        58.70171         0.72964
C         48.87983        59.41450         0.14300
C         50.12850        61.55955         0.06969
C         48.82396        60.92629         0.47291
C         51.50156        42.23935        -0.02466
C         52.50150        44.41692        -0.20450
C         51.36974        43.60447        -0.39010
C         52.52547        45.82863        -0.33486
C         51.31517        46.56758        -0.59215
C         52.57115        48.67013        -0.46475
C         51.30598        47.96466        -0.61324
C         52.63975        50.05287        -0.52803
C         51.41954        50.80776        -0.61488
C         52.61992        52.96788        -0.30592
C         51.38704        52.18446        -0.38796
C         52.59703        54.39461         0.09441
C         51.39358        55.09514         0.16699
C         52.59948        57.22334         0.24989
C         51.38097        56.52272         0.27247
C         52.66429        58.72038         0.47852
C         51.35623        59.42399         0.26986
C         52.60224        61.52560        -0.06099
C         51.32990        60.82899         0.05840
C         53.73431        46.52138        -0.12370
C         55.00376        48.59919         0.10241
C         53.79977        47.92711        -0.19113
C         55.12157        50.01867         0.05972
C         53.98931        50.73637        -0.64664
C         55.05164        52.92490         0.33083
C         53.92355        52.23962        -0.37067
C         55.08467        54.39875         0.22640
C         53.84115        55.09452         0.13797
C         55.08833        57.20271         0.10253
C         53.83248        56.51692         0.16755
C         55.08812        58.63944        -0.23236
C         53.75595        59.35722        -0.38453
C         55.04813        61.53387         0.05546
C         53.81528        60.85494        -0.12141
C         56.27341        50.68631         0.42757
C         57.53538        52.95955         0.67976
C         56.30369        52.15717         0.62662
C         57.52348        54.32695         0.60736
C         56.29364        55.08199         0.40328
C         57.54153        57.25664         0.46782
C         56.30139        56.51765         0.28391
C         57.54146        58.66744         0.46644
C         56.35997        59.40949        -0.00990
C         57.45214        61.54057         0.59743
C         56.28637        60.87428         0.20314
C         58.85083        55.05642         0.68174
C         59.89476        57.27815         1.10090
C         58.75389        56.56330         0.77410
C         59.89387        58.70122         1.16218
C         58.69553        59.40115         0.83429
C         59.83658        61.52881         1.24901
C         58.66420        60.84069         0.87804
C         61.05050        59.44139         1.52016
C         61.01111        60.83092         1.55940
O         48.15083        50.52247        -2.13992
O         42.87087        40.66405         2.39470
O         46.76283        52.91920        -1.85789
O         39.32360        48.36836        -0.70641
O         44.19228        48.16678        -1.63735
O         42.41023        52.52751         1.80801
O         53.46967        52.92261        -1.57283
O         55.29920        52.48148         1.70493
O         50.16577        44.99942        -2.10717
O         37.15564        48.21920         2.33087
O         50.02993        53.36379         1.30164
O         37.50295        53.95669         1.75234
O         47.64948        57.97607         1.81153
O         36.12035        59.97998        -2.42245
O         55.96190        58.96708        -1.37093
O         38.34874        57.38207         0.74171
O         45.57282        40.71498         2.05422
O         49.64096        41.58831        -1.34609
O         39.70809        58.52545        -2.73107
O         45.44588        59.33808         1.56717
O         44.06824        34.72027         1.64512
H         44.04998        35.57264         2.13175
O         41.37332        55.53812         1.96092
H         41.52635        54.71639         2.47536
O         59.64327        54.71536        -0.47590
H         59.20877        55.09995        -1.26490
O         48.92976        59.26705        -1.29427
H         49.73347        59.72517        -1.62269
O         32.53503        59.11852         2.08448
H         31.99124        59.55665         2.77167
O         48.69593        35.08330         0.23282
H         48.36271        35.07065         1.15339
O         53.01704        58.92836         1.87787
H         52.18310        58.83431         2.39830
O         40.41137        49.90192         2.41992
H         40.69059        50.77996         2.75891
O         54.34624        50.59291        -2.05657
H         53.88174        51.32017        -2.53481
O         48.68334        61.09311         1.91274
H         47.82376        60.70439         2.18324
O         43.41075        56.94821         1.69388
H         44.18543        56.96401         2.29341
O         42.13300        59.05370        -2.83016
H         41.33062        59.10727        -3.40549
O         43.17929        56.62501        -1.93902
H         42.83411        57.29276        -2.58316
O         32.05151        58.77862        -1.51575
H         32.63981        58.45137        -2.22787
O         53.33593        59.17537        -1.75849
H         54.14243        59.28172        -2.31236
O         43.60753        52.52049        -1.70828
H         44.38498        52.21312        -2.22175
O         50.15244        58.78220         2.18230
H         49.28053        58.43546         2.50260
O         36.69813        54.44287        -1.73903
H         36.11068        54.95219        -2.33695
O         45.40303        52.46549         1.50565
H         44.56768        52.60817         2.00541
O         37.40114        57.70507        -2.77861
H         37.20926        58.43269        -3.41099
H         29.47496        56.77532         0.94021
H         28.42378        58.98226         1.38848
H         30.67846        62.62972         0.87215
H         28.59838        61.45022         1.51004
H         31.78798        52.38518         0.77279
H         30.62769        54.58483         0.87740
H         33.00148        62.54965         0.03683
H         34.23078        48.07562         0.67775
H         33.01821        50.21041         0.84809
H         35.44738        62.45939        -0.33306
H         36.83248        43.68529         1.11534
H         35.54549        45.80856         0.72080
H         37.91482        62.37424        -0.95983
H         39.36337        39.50070         0.89505
H         38.11869        41.58050         1.13221
H         40.20853        62.37117        -1.14887
H         41.75255        35.33720         0.03543
H         40.56619        37.44659         0.28669
H         42.63713        62.49336        -0.95571
H         44.98501        32.12509        -1.41992
H         42.92981        33.20688        -0.55475
H         45.11975        62.53097        -0.81930
H         47.20417        33.25402        -1.20786
H         48.12715        35.72163        -1.63304
H         47.63171        62.57935        -0.52442
H         49.86540        37.37406        -0.13013
H         51.03218        39.45558         0.83200
H         50.16735        62.65087        -0.06706
H         52.40905        41.95614         0.53125
H         53.44421        43.92432         0.07977
H         52.59436        62.62324         0.02860
H         54.64624        45.94944         0.10313
H         55.86909        48.00445         0.43404
H         55.01830        62.62296         0.21967
H         57.13913        50.10463         0.78323
H         58.50086        52.43463         0.74446
H         57.42928        62.63304         0.72932
H         59.42304        54.67458         1.56731
H         60.82635        56.73683         1.32331
H         59.82555        62.62741         1.29180
H         61.97798        58.90600         1.76846
H         61.91297        61.39263         1.84084
