         640
 CSIRO Nanostructure Databank - Neutral Graphene Oxide Data Set
C         22.93887        27.33653         0.66550
C         22.93653        28.71012         0.62330
C         22.95729        31.62056         0.32779
C         22.96608        32.98201         0.14777
C         23.01102        35.88180        -0.35222
C         22.99406        37.24712        -0.45230
C         22.98156        40.18761        -0.59972
C         23.02616        41.52782        -0.85544
C         23.10921        44.34461        -1.69051
C         23.13380        45.67838        -2.00574
C         25.36238        24.50220         0.80327
C         24.17332        25.19634         0.74535
C         25.39251        27.32739         0.86668
C         24.16040        26.61435         0.76273
C         25.38193        28.75981         0.84900
C         24.15054        29.45776         0.69167
C         25.38416        31.60917         0.65716
C         24.15673        30.89033         0.56890
C         25.39305        33.03071         0.47923
C         24.17881        33.72976         0.20076
C         25.42967        35.84814         0.08999
C         24.20823        35.14083        -0.03888
C         25.48928        37.28360        -0.38782
C         24.18332        38.04050        -0.30553
C         25.39746        40.22540         0.04037
C         24.17304        39.42559        -0.34301
C         25.46118        41.60869        -0.57159
C         24.26995        42.26551        -0.91386
C         25.53313        44.35524        -1.29712
C         24.29917        43.64914        -1.30959
C         25.56625        45.75087        -1.62602
C         24.35425        46.41792        -1.96520
C         25.55896        48.51163        -2.19401
C         24.37230        47.80310        -2.25153
C         27.90680        23.06535         0.79971
C         27.85014        24.45097         0.94942
C         26.61092        25.17775         0.90779
C         27.85870        27.33208         1.04893
C         26.61733        26.60416         0.95330
C         27.82619        28.74499         1.10717
C         26.61437        29.48005         0.98547
C         27.82057        31.66496         1.02174
C         26.61078        30.91592         0.91884
C         27.84602        33.05894         0.84254
C         26.61516        33.76145         0.58918
C         27.82849        35.94890         0.86107
C         26.60874        35.17247         0.43244
C         27.88002        37.36834         0.35542
C         26.70197        38.05478         0.06649
C         27.90047        40.19104         0.04544
C         26.70227        39.47149        -0.04156
C         27.91967        41.63324        -0.19378
C         26.70384        42.30235        -0.57911
C         27.97818        44.40179        -0.88243
C         26.74217        43.68286        -0.92769
C         28.02005        45.79426        -1.22979
C         26.79362        46.48180        -1.60064
C         28.03953        48.64587        -1.86840
C         26.77609        47.86942        -1.87869
C         28.03793        50.10652        -1.62609
C         30.36374        23.05350         0.71516
C         29.12419        22.37575         0.75584
C         30.38348        24.47092         0.84604
C         29.12771        25.16016         1.33593
C         30.33207        27.34360         1.01481
C         29.10882        26.64390         1.09249
C         30.35920        28.76365         1.13239
C         29.08471        29.44747         1.39124
C         30.36046        31.65638         1.18035
C         29.07399        30.97291         1.36438
C         30.34077        33.06961         0.99752
C         29.10848        33.78038         0.86947
C         30.34553        35.91071         0.69757
C         29.12229        35.18807         0.72996
C         30.34549        37.35054         0.55260
C         29.11742        38.06610         0.39704
C         30.36364        40.18921         0.27555
C         29.13344        39.48296         0.22210
C         30.33618        41.68528         0.45959
C         29.11680        42.34784        -0.13109
C         30.41099        44.45245        -0.42413
C         29.16726        43.73453        -0.47240
C         30.44083        45.83623        -0.74296
C         29.24035        46.48552        -1.15980
C         30.45446        48.70109        -0.95173
C         29.31020        47.91000        -1.55015
C         30.48232        50.15025        -1.37789
C         29.18317        50.80223        -1.42425
C         32.81015        20.26680         0.01030
C         31.62618        20.93241         0.31173
C         32.82058        23.05521         0.35254
C         31.59987        22.33187         0.46921
C         32.80968        24.48943         0.43033
C         31.58039        25.19672         0.68478
C         32.75380        27.38701         0.60866
C         31.57988        26.64237         0.80262
C         32.81053        28.80764         0.79427
C         31.56752        29.49683         1.10502
C         32.84700        31.63431         1.54365
C         31.55613        30.92023         1.23622
C         32.78880        33.10488         1.20499
C         31.59086        33.78682         0.98011
C         32.81340        35.94451         0.78009
C         31.57881        35.21803         0.81274
C         32.80888        37.35513         0.58031
C         31.56848        38.05869         0.48315
C         32.83775        40.19708         0.31230
C         31.57547        39.48960         0.35749
C         32.84089        41.64269         0.19266
C         31.63847        42.35774         0.11150
C         32.87421        44.45856        -0.22612
C         31.64008        43.75907        -0.14686
C         32.89019        45.83718        -0.55807
C         31.70347        46.54104        -0.77069
C         32.95922        48.64101        -1.19801
C         31.76254        47.96203        -1.06256
C         32.97011        50.06065        -1.71904
C         31.67792        50.82033        -1.50602
C         32.94761        52.91464        -1.56276
C         31.75800        52.25830        -1.62750
C         35.37719        18.79859        -0.15176
C         35.25149        20.22862        -0.61278
C         34.02322        20.95669        -0.10842
C         35.28037        23.09352        -0.02874
C         34.03814        22.36011         0.07626
C         35.25584        24.53723         0.07105
C         34.01099        25.20369         0.22421
C         35.24695        27.44411         0.02019
C         33.95093        26.67181         0.13125
C         35.26976        28.87902         0.35203
C         34.02922        29.53600         0.65456
C         35.27070        31.64830         0.87148
C         34.08481        30.95690         0.96459
C         35.35223        33.08219         1.20989
C         34.03522        33.85564         1.32140
C         35.27477        35.95566         0.79315
C         34.04746        35.27794         0.97669
C         35.25755        37.33366         0.48677
C         34.04373        38.05131         0.45705
C         35.30996        40.19587         0.34192
C         34.04066        39.49016         0.31357
C         35.31776        41.64408         0.34167
C         34.09792        42.34161         0.16945
C         35.33407        44.46404         0.10942
C         34.11460        43.76041         0.02019
C         35.28540        45.97095         0.12136
C         34.22865        46.47434        -0.84849
C         35.41531        48.66923        -0.86046
C         34.21695        47.98401        -0.94256
C         35.51876        50.07697        -1.41006
C         34.21827        50.83842        -1.36030
C         35.45971        52.96717        -1.25694
C         34.21323        52.21475        -1.39626
C         35.49465        54.36232        -1.40595
C         37.79668        18.85695        -0.55848
C         36.55939        18.15601        -0.23274
C         37.76433        20.28863        -0.55334
C         36.54817        20.98776        -0.41427
C         37.75991        23.19316        -0.36853
C         36.48591        22.39778        -0.24642
C         37.73807        24.52194         0.38569
C         36.47564        25.29042         0.08512
C         37.72426        27.43115         0.09329
C         36.50562        26.68928         0.09636
C         37.74191        28.84266         0.15488
C         36.50144        29.54839         0.30939
C         37.79762        31.71112         0.53318
C         36.48491        31.04614         0.18767
C         37.81674        33.10433         0.74307
C         36.57069        33.84478         0.89087
C         37.78042        35.97906         0.70903
C         36.53472        35.22836         0.83109
C         37.78167        37.30441         0.40138
C         36.50858        38.02592         0.02356
C         37.74280        40.20383         0.71258
C         36.49828        39.49425         0.38910
C         37.78275        41.66846         0.60123
C         36.54988        42.35754         0.40769
C         37.80186        44.49845         0.36606
C         36.55263        43.78414         0.30408
C         37.81262        45.92202         0.15572
C         36.61959        46.63216        -0.11577
C         37.87610        48.72204        -0.39466
C         36.64306        47.99399        -0.47130
C         37.87864        50.16455        -0.56511
C         36.70386        50.85299        -0.89411
C         37.88062        53.02086        -0.72873
C         36.68245        52.27805        -0.95649
C         37.88603        54.45065        -0.89832
C         36.67553        55.08209        -1.25684
C         40.25031        16.02684        -0.95535
C         39.05615        16.73136        -0.89320
C         40.32151        18.87586        -0.89852
C         39.00023        18.14575        -0.73581
C         40.31335        20.30023        -0.41470
C         39.05633        21.06439        -0.75746
C         40.25023        23.14573         0.04028
C         38.97229        22.35544         0.06953
C         40.23750        24.54756         0.00359
C         39.01028        25.25622         0.05264
C         40.28010        27.45054        -0.22388
C         38.96331        26.68962        -0.18471
C         40.24157        28.88697         0.10316
C         39.01167        29.56188         0.20267
C         40.26038        31.67685         0.60122
C         39.01880        30.98891         0.45193
C         40.26874        33.10044         0.77441
C         39.04632        33.79613         0.83209
C         40.30998        35.96433         0.71271
C         39.04262        35.26927         1.14627
C         40.32057        37.32836         0.50396
C         39.06172        38.05980         0.13372
C         40.30382        40.22874         0.59274
C         39.05042        39.46123         0.70133
C         40.27144        41.63491         0.65726
C         39.01233        42.35464         0.63291
C         40.26011        44.51085         0.60634
C         39.01852        43.79147         0.53388
C         40.24173        45.91935         0.49163
C         39.05159        46.62887         0.18614
C         40.30395        48.78353         0.08355
C         39.06467        48.04953        -0.03128
C         40.31218        50.20462        -0.08296
C         39.09409        50.89909        -0.35604
C         40.32577        53.02870        -0.27793
C         39.09376        52.31731        -0.43253
C         40.28497        54.52305        -0.08850
C         39.09920        55.20232        -0.72853
C         40.37092        57.29758        -0.78174
C         39.17998        56.58765        -0.94134
C         42.71083        15.96854        -0.50569
C         41.49633        16.64260        -0.63659
C         42.73623        18.78766         0.04962
C         41.44263        18.06727        -0.28355
C         42.74452        20.25425        -0.01771
C         41.47071        20.94680        -0.06688
C         42.76669        23.11794         0.07975
C         41.48879        22.38562         0.40931
C         42.74289        24.54400         0.01970
C         41.50763        25.27537        -0.01579
C         42.74434        27.40156         0.07383
C         41.52248        26.67896        -0.02718
C         42.73066        28.83568         0.18969
C         41.49484        29.56006         0.27033
C         42.75561        31.64323         0.62576
C         41.51226        30.96480         0.51012
C         42.79578        33.08144         1.08136
C         41.51505        33.82420         0.83774
C         42.78180        35.94186         0.58170
C         41.54190        35.22474         0.75362
C         42.77751        37.35981         0.51280
C         41.54778        38.07372         0.48770
C         42.76332        40.22632         0.58186
C         41.52974        39.50470         0.51171
C         42.74830        41.64840         0.64699
C         41.51031        42.36305         0.66150
C         42.75921        44.47560         0.74111
C         41.50933        43.78649         0.70879
C         42.77430        45.94244         0.87546
C         41.46625        46.69185         0.74156
C         42.74294        48.81528         0.45908
C         41.50642        48.11972         0.39069
C         42.76309        50.23200         0.31129
C         41.53172        50.92321         0.03161
C         42.85627        53.02554        -0.29718
C         41.52134        52.34328        -0.11816
C         42.81006        54.53107        -0.22698
C         41.60324        55.21462        -0.34673
C         42.84031        57.32247        -0.50855
C         41.60136        56.63094        -0.52020
C         43.92019        16.64950        -0.24594
C         45.21890        18.79646        -0.07511
C         43.99101        18.03554        -0.07124
C         45.19159        20.20279         0.01343
C         43.95521        20.94337         0.01152
C         45.21502        23.11912        -0.09279
C         43.96885        22.40752         0.00585
C         45.20926        24.54401        -0.09515
C         43.97364        25.26008        -0.03078
C         45.21006        27.40274         0.04732
C         43.97195        26.68771         0.03177
C         45.20323        28.81919         0.16911
C         43.96508        29.53565         0.26308
C         45.23224        31.67255         0.47546
C         43.97091        30.95560         0.45471
C         45.25266        33.09077         0.50875
C         44.02694        33.83014         0.61390
C         45.24747        35.94915         0.00698
C         44.00673        35.21080         0.45904
C         45.25358        37.41161         0.40044
C         44.02211        38.09398         0.50718
C         45.23407        40.23577         0.68986
C         44.00183        39.51753         0.58900
C         45.21236        41.64974         0.78400
C         43.99334        42.35697         0.71540
C         45.24511        44.51796         0.61418
C         43.98297        43.79396         0.72244
C         45.22915        45.97320         0.47766
C         44.02034        46.68148         0.62116
C         45.21645        48.82169         0.64346
C         43.98956        48.10082         0.58847
C         45.19804        50.26840         0.69666
C         43.98356        50.94396         0.49590
C         45.26848        53.12347         0.33360
C         43.93932        52.45109         0.61125
C         45.28894        54.48153        -0.01882
C         44.05090        55.22764        -0.20572
C         44.03026        56.63933        -0.32913
C         47.65312        18.77327        -0.45942
C         46.47243        18.12012        -0.32858
C         47.77059        20.20392        -0.15217
C         46.45657        20.95834         0.08846
C         47.67477        23.11545        -0.29180
C         46.45571        22.42117        -0.12368
C         47.67242        24.54892        -0.29751
C         46.44512        25.25797        -0.14858
C         47.67082        27.39915        -0.10038
C         46.44085        26.68589        -0.06776
C         47.66644        28.81798         0.05867
C         46.44376        29.52860         0.21220
C         47.70669        31.64546         0.40743
C         46.45581        30.95058         0.35948
C         47.72406        33.08100         0.48947
C         46.50463        33.79911         0.46468
C         47.72722        35.92650         0.38213
C         46.52287        35.22703         0.37173
C         47.74800        37.41030         0.06959
C         46.46691        38.12553         0.43679
C         47.73220        40.25166         0.72011
C         46.47480        39.52023         0.63717
C         47.74321        41.65743         0.79203
C         46.47259        42.39595         1.14002
C         47.70759        44.49381         0.34298
C         46.44028        43.83051         0.68335
C         47.70795        45.99080         0.15014
C         46.44323        46.71000         0.40238
C         47.69162        48.79176         0.96733
C         46.43664        48.10161         0.59572
C         47.64757        50.28851         1.22266
C         46.42121        51.01489         0.85357
C         47.75345        53.10169         0.52499
C         46.47595        52.40214         0.58442
C         47.73163        54.47263         0.08613
C         46.56231        55.12686        -0.17590
C         50.09561        20.33268        -1.06458
C         48.94485        20.98564        -0.60726
C         50.09828        23.13567        -0.87634
C         48.91639        22.40550        -0.55196
C         50.11110        24.57933        -0.74718
C         48.89891        25.27537        -0.43654
C         50.12173        27.43210        -0.41358
C         48.89902        26.69558        -0.30703
C         50.12544        28.82981        -0.21271
C         48.90503        29.53075         0.07488
C         50.23302        31.60416         0.57590
C         48.91808        30.92390         0.29858
C         50.20108        33.09785         0.40921
C         48.97369        33.79515         0.47312
C         50.20423        35.94807         0.51201
C         48.96457        35.22542         0.45320
C         50.17383        37.37057         0.72015
C         48.98829        38.10890         0.59301
C         50.17691        40.25329         1.15535
C         48.95055        39.51007         0.79323
C         50.22450        41.70964         0.92444
C         48.98110        42.39838         0.76637
C         50.20734        44.53968         0.66743
C         48.98806        43.80043         0.60521
C         50.22735        45.96046         0.58364
C         49.02507        46.75672         0.11486
C         50.17897        48.81058         0.86653
C         48.98320        48.12223         0.75807
C         50.17685        50.32388         0.78913
C         48.95851        51.05550         1.41333
C         50.23913        53.11067         0.82160
C         48.94994        52.46211         0.85395
C         51.22735        21.05721        -1.43802
C         52.48088        23.19260        -1.80132
C         51.25730        22.44755        -1.31571
C         52.51360        24.64499        -1.37651
C         51.31356        25.29903        -0.93168
C         52.53804        27.42506        -0.91258
C         51.34516        26.72163        -0.72687
C         52.49596        28.89294        -0.96307
C         51.32583        29.60229        -0.42904
C         52.62413        31.70628        -0.26507
C         51.39463        30.95136        -0.12693
C         52.64350        33.11458         0.00713
C         51.42967        33.80403         0.28917
C         52.69058        35.93523         0.41384
C         51.43049        35.23561         0.40955
C         52.64361        37.40204         0.53131
C         51.45398        37.98417         1.25435
C         52.73291        40.25648         1.08358
C         51.47074        39.50752         1.30629
C         52.70721        41.67989         1.07963
C         51.44288        42.40405         1.00026
C         52.65709        44.56974         0.94841
C         51.44292        43.83797         0.88207
C         52.67921        45.97496         0.82416
C         51.43536        46.67958         0.71258
C         52.66657        48.83887         0.61700
C         51.42902        48.11935         0.72485
C         52.69307        50.26075         0.65545
C         51.49690        50.97046         1.26923
C         51.41569        52.45727         1.01166
C         54.95017        23.18756        -1.60443
C         53.79648        22.52349        -1.44282
C         54.92279        24.62702        -1.98282
C         53.69127        25.34628        -1.55319
C         54.97511        27.45226        -1.35510
C         53.76457        26.76205        -1.28535
C         55.03741        28.80572        -0.70367
C         53.80828        29.64100        -1.01063
C         55.11947        31.70814        -0.57409
C         53.80964        31.04049        -0.60242
C         55.17956        33.19229        -0.45267
C         53.83782        33.93871        -0.45160
C         55.16954        35.97757         0.37866
C         53.89939        35.30182         0.18040
C         55.17263        37.36403         0.61904
C         53.94196        38.14670         0.54625
C         55.17913        40.28796         0.84738
C         53.95061        39.58021         0.91621
C         55.17622        41.70868         0.92883
C         53.93480        42.38253         1.04165
C         55.22901        44.60086         0.96947
C         53.91659        43.84654         1.17685
C         55.15211        46.01574         0.58232
C         53.91970        46.69713         0.64647
C         55.09545        48.81913         0.13644
C         53.89192        48.11690         0.43944
C         55.04757        50.22843         0.04594
C         53.88331        50.92957         0.35170
C         57.48949        24.72387        -2.31582
C         56.17670        25.40830        -2.27091
C         57.49458        27.52022        -1.63130
C         56.17335        26.93729        -2.11728
C         57.55814        28.85304        -1.14729
C         56.33604        29.56466        -0.81662
C         57.58279        31.59875        -0.11176
C         56.34077        30.88420        -0.42734
C         57.59207        33.05954         0.13268
C         56.42741        33.82797         0.07909
C         57.64447        35.86206         0.86833
C         56.38842        35.21132         0.43286
C         57.69626        37.36199         0.99666
C         56.38942        38.11256         0.96925
C         57.64590        40.24349         0.67370
C         56.41796        39.57307         0.77285
C         57.64491        41.68357         0.56958
C         56.42504        42.41627         0.74922
C         57.61424        44.51986         0.26429
C         56.43969        43.82501         0.65292
C         57.57344        45.94285         0.05336
C         56.34896        46.68233         0.18556
C         57.53949        48.73028        -0.43110
C         56.33082        48.08569        -0.05070
C         58.65036        25.40029        -2.20319
C         59.92937        27.48863        -1.78018
C         58.69070        26.82138        -1.88211
C         59.97993        28.83991        -1.45798
C         58.80826        29.53114        -1.10338
C         59.96591        31.84365        -0.93656
C         58.88984        30.90344        -0.53804
C         59.96891        33.12771        -0.53638
C         58.97333        33.60945         0.50170
C         60.15264        35.94937         0.51275
C         58.95037        35.12289         0.76104
C         60.11804        37.31004         0.44342
C         58.92868        38.09507         0.66776
C         60.09163        40.26549         0.36101
C         58.89564        39.50259         0.58333
C         60.06921        41.62436         0.21230
C         58.85204        42.38108         0.29697
C         60.00974        44.53006        -0.27419
C         58.83631        43.80092         0.09600
C         59.97240        45.88601        -0.47890
C         58.75695        46.62206        -0.32823
C         58.71475        48.02304        -0.56759
O         50.74046        39.94143         2.50937
O         58.30480        35.30531         2.07648
O         34.43503        27.16716        -1.17865
O         47.49115        49.34875         2.34570
O         29.02489        30.23314         2.63281
O         57.04077        37.75900         2.25149
O         54.69493        44.33887         2.31747
O         28.99219        48.21918        -2.93140
O         39.58808        27.10208        -1.47292
O         55.30441        24.94652        -3.37869
O         38.36119        39.63406         1.96850
O         34.82073        33.47002         2.52996
O         53.09927        38.02519        -0.70321
O         41.78270        18.32734         1.09671
O         47.32970        20.54985         1.19978
O         53.07660        29.38355        -2.23796
O         55.38583        32.58946        -1.78359
O         47.62525        45.10124        -1.02166
O         42.05557        46.41712         2.06923
O         58.45059        30.89142         0.84484
O         27.65695        36.11588         2.32479
H         27.66613        35.21983         2.72525
O         30.19030        41.87799         1.92208
H         30.96361        41.45271         2.35089
O         50.05748        50.58750        -0.63856
H         50.60458        49.93337        -1.12288
O         43.56721        52.76957         1.98065
H         44.22600        52.35939         2.57903
O         36.43866        38.00304        -1.44888
H         37.33174        38.28104        -1.77253
O         51.68495        50.76797         2.69081
H         50.86277        51.09899         3.13427
O         38.76962        21.87753         1.43195
H         38.43085        22.64468         1.95912
O         49.12205        51.20912         2.84825
H         48.66345        50.43679         3.26174
O         30.15364        48.73301         0.48546
H         30.92027        49.13183         0.94859
O         39.18341        21.32742        -2.18387
H         38.58253        22.08986        -2.40090
O         41.46070        22.30301         1.88112
H         40.58700        21.89585         2.10529
O         46.47811        42.46649         2.62349
H         46.51490        41.54567         2.96038
O         34.85835        46.37766         1.45721
H         35.52435        46.05321         2.09896
O         39.14442        38.25839        -1.32702
H         39.47055        37.42336        -1.72615
O         59.41003        33.02467         1.75333
H         58.91199        33.48775         2.46515
O         45.22522        35.95644        -1.46326
H         46.01618        36.47492        -1.74990
O         32.98085        31.54550         3.00555
H         33.71627        32.16098         3.25265
O         53.49895        34.22738        -1.84952
H         53.95495        33.53499        -2.39008
O         34.61915        45.99984        -2.17150
H         33.98132        46.36162        -2.82204
O         49.28915        47.04057        -1.30505
H         48.93868        46.26323        -1.80241
O         29.18678        25.02965         2.81758
H         29.17714        24.06880         3.01769
O         25.71384        37.14779        -1.84813
H         24.93358        36.67983        -2.21625
O         35.79809        49.88404        -2.84878
H         34.93906        49.61874        -3.26353
O         52.39661        23.17980        -3.26035
H         53.16714        23.68136        -3.60582
O         47.79530        37.48163        -1.40565
H         48.65141        37.09475        -1.69059
O         35.06138        20.16236        -2.07411
H         35.86860        19.75238        -2.45242
O         37.87621        23.54894        -1.77864
H         38.46078        24.33687        -1.85299
O         54.89785        28.55280         0.74671
H         55.75036        28.19681         1.07658
O         37.70407        24.25564         1.83255
H         37.81069        25.11136         2.29877
O         40.05275        54.69094         1.36575
H         40.06906        55.65465         1.54913
O         42.92863        33.00052         2.55927
H         42.73851        33.89351         2.91875
O         36.29785        31.33031        -1.25228
H         35.63171        30.69626        -1.59512
O         33.05876        49.88755        -3.19703
H         32.90034        50.77040        -3.59675
O         25.21374        40.47107         1.48752
H         25.98345        40.99693         1.79469
O         51.60197        37.50883         2.62194
H         51.09420        38.13599         3.18839
O         43.28001        52.69770        -1.65640
H         42.61806        53.06391        -2.27932
O         50.48855        31.38665         2.02292
H         49.74908        31.80376         2.51480
O         40.61019        18.93097        -2.33111
H         40.08670        19.68593        -2.69483
O         39.05211        35.35410         2.61547
H         38.96739        36.30062         2.85992
O         56.02528        27.49355        -3.46158
H         55.44500        26.86917        -3.95622
H         21.99295        26.77927         0.60560
H         21.97500        29.23169         0.53308
H         21.99619        31.09376         0.26962
H         22.01286        33.49191        -0.04265
H         22.05978        35.34367        -0.45767
H         22.02570        37.74497        -0.60042
H         22.01064        39.67598        -0.65706
H         22.08279        42.04737        -1.06851
H         22.15060        43.81127        -1.72961
H         22.20683        46.19876        -2.28693
H         25.33262        23.40494         0.78353
H         23.21990        24.65344         0.67374
H         25.55479        49.58529        -2.42698
H         23.43529        48.31135        -2.52003
H         26.98633        22.48145         0.66320
H         27.07791        50.64267        -1.62823
H         29.08970        21.28473         0.64476
H         29.12680        51.89549        -1.31766
H         32.77230        19.18262        -0.16081
H         30.70340        20.34334         0.39036
H         32.94129        54.01123        -1.60662
H         30.83040        52.84361        -1.69369
H         34.47779        18.23876         0.14191
H         34.58323        54.91887        -1.66003
H         36.61608        17.09023         0.03139
H         36.64233        56.17006        -1.40060
H         40.22778        14.94264        -1.14167
H         38.11739        16.16690        -0.99214
H         40.38011        58.38402        -0.94946
H         38.29108        57.14601        -1.26766
H         42.74721        14.88450        -0.68942
H         42.84532        58.41508        -0.63222
H         44.84222        16.05245        -0.25590
H         44.96710        57.21141        -0.29075
H         48.53806        18.21413        -0.79261
H         46.45188        17.03994        -0.52488
H         48.67857        55.01505        -0.03360
H         46.60348        56.17244        -0.50954
H         50.12471        19.23766        -1.13448
H         50.27782        54.19491         0.63818
H         52.10111        20.51795        -1.82803
H         52.34400        53.04733         1.03549
H         55.91658        22.69541        -1.41894
H         53.80837        21.46766        -1.13363
H         55.95364        50.79934        -0.19617
H         53.91846        52.02739         0.36142
H         57.49474        23.64891        -2.54592
H         57.54735        49.81079        -0.62670
H         59.60931        24.87187        -2.30936
H         60.85741        26.93572        -1.98367
H         60.95095        29.35260        -1.41362
H         60.70401        31.49579        -1.67541
H         60.74757        33.81235        -0.90470
H         61.10935        35.43569         0.33959
H         61.05877        37.83326         0.22087
H         61.05938        39.74917         0.31029
H         61.02001        42.14642         0.04181
H         60.96235        44.00128        -0.41008
H         60.88494        46.42531        -0.77148
H         59.63750        48.54052        -0.86720
