         320
 CSIRO Nanostructure Databank - Neutral Graphene Oxide Data Set
C         30.25671        31.92598         1.56197
C         30.32788        33.15362         1.62678
C         30.40827        36.33690         0.69375
C         30.56223        37.41093         0.09830
C         30.75088        40.33118        -1.21058
C         30.72821        41.52965        -1.51204
C         32.58516        29.30124         0.54712
C         31.45499        29.77865         0.78097
C         32.69462        31.81070         1.45171
C         31.38298        30.96337         1.75312
C         32.71740        33.17135         1.39393
C         31.48654        34.04220         1.55482
C         32.81158        35.94808         0.40107
C         31.52043        35.47799         1.14106
C         32.89823        37.42732         0.03296
C         31.75702        38.11145        -0.30776
C         33.08265        40.22135        -0.65592
C         31.85001        39.32513        -1.17763
C         33.13771        41.50686        -1.49956
C         31.88367        42.47824        -1.33147
C         33.24374        43.93155        -2.72210
C         32.14308        43.58298        -2.30187
C         35.19610        27.84879        -0.42803
C         35.10970        29.06798         0.28642
C         33.92390        29.74163         0.66651
C         35.19896        31.67938         1.44951
C         33.96972        31.08153         1.21684
C         35.21632        33.17071         1.79570
C         34.05618        33.82095         1.01745
C         35.36946        35.96970         0.74547
C         34.03938        35.36935         1.14557
C         35.44796        37.27127         0.14738
C         34.23413        37.87113        -0.55647
C         35.55136        39.98130        -0.97479
C         34.34805        39.38345        -0.74475
C         35.65987        41.35591        -1.49354
C         34.44202        41.96464        -2.11788
C         35.78186        44.14682        -2.56765
C         34.57340        43.31813        -2.96964
C         35.76717        45.57563        -2.20910
C         37.58515        27.67012        -0.44693
C         36.27145        27.29544        -0.77606
C         37.59923        28.88825         0.29974
C         36.40592        29.58046         0.62603
C         37.71221        31.69875         1.03181
C         36.47426        30.85887         1.45862
C         37.77226        33.06608         1.80668
C         36.52301        33.87708         1.47593
C         37.81113        35.98581         1.21841
C         36.53338        35.23489         1.17392
C         37.75499        37.48899         0.97801
C         36.65146        37.95651         0.06878
C         37.85874        40.19267         0.00590
C         36.84272        39.24887        -0.68114
C         37.90970        41.67892        -0.39150
C         36.80294        42.09356        -1.34379
C         37.96217        44.30863        -1.07196
C         36.93970        43.48938        -1.84605
C         37.79270        45.79869        -0.83530
C         36.66691        46.24006        -1.67649
C         39.88966        24.86024        -1.30837
C         38.84669        25.52531        -1.16556
C         40.06543        27.35697        -0.13552
C         38.81780        27.02997        -1.02116
C         40.12266        28.91051         0.06496
C         38.91735        29.33386         0.94849
C         40.31255        31.51420         1.21126
C         38.97607        30.84872         1.23012
C         40.36092        33.01479         1.18613
C         39.11260        33.77548         1.48626
C         40.21584        35.91461         0.43436
C         39.09982        35.24945         1.22490
C         40.28103        37.38678         0.77761
C         39.12258        38.09790         0.71462
C         40.40138        40.29345         0.42606
C         39.10844        39.57616         0.58780
C         40.44359        41.57003        -0.05503
C         39.31144        42.11339        -0.92798
C         40.32152        44.39840        -0.12090
C         39.37037        43.69110        -1.11461
C         40.31070        45.90140        -0.42736
C         38.92460        46.64377        -0.25325
C         40.23673        48.69323        -0.83587
C         39.22797        47.98483        -0.82294
C         42.52379        24.65402        -1.25024
C         41.20056        24.87718        -0.65449
C         42.60924        27.17120         0.06287
C         41.36521        26.77295        -0.70094
C         42.72352        28.62194         0.47825
C         41.48548        29.46521         0.51127
C         42.90148        31.45361         1.11431
C         41.55955        30.76826         0.88382
C         42.86408        32.96647         0.86556
C         41.58646        33.67154         0.62299
C         42.82467        35.91198         0.64028
C         41.56091        35.16687         0.42025
C         42.83696        37.25658         0.88714
C         41.58101        38.10362         1.06886
C         42.92603        40.15861         0.45003
C         41.62629        39.39782         0.24094
C         42.80990        41.66532         0.69859
C         41.77997        42.25297        -0.28014
C         42.86154        44.49296         0.10593
C         41.71952        43.77259        -0.12379
C         42.94118        45.96575        -0.29682
C         41.58025        46.69095        -0.40388
C         42.89019        48.73961        -0.45607
C         41.49822        48.25954        -0.12856
C         43.61024        25.13671        -0.89343
C         45.18868        27.16740        -0.24460
C         43.89815        26.40970        -0.22494
C         45.17027        28.67347        -0.10742
C         44.03916        29.31588         0.30981
C         45.30580        31.53659         0.33793
C         43.96074        30.83696         0.17640
C         45.29547        32.93187         0.66892
C         44.06428        33.64865         0.73333
C         45.27347        35.76112         1.37186
C         44.13661        35.15337         0.51780
C         45.27139        37.27691         1.34851
C         44.10807        37.95506         1.11902
C         45.23610        40.22475         1.59668
C         44.12768        39.43706         0.94844
C         45.16369        41.76217         1.64791
C         44.19764        42.34026         0.57828
C         45.27161        44.56819         0.79445
C         44.12222        43.86768         0.55182
C         45.38262        46.06366         0.38258
C         44.02737        46.74743         0.49643
C         43.90156        48.14074        -0.07509
C         47.38549        27.39888        -1.24427
C         46.38711        26.73488        -0.97741
C         47.68099        28.78756        -0.90128
C         46.30503        29.51845        -0.71910
C         47.80235        31.62218        -0.12079
C         46.45825        30.88600        -0.07305
C         47.58431        33.14957        -0.26302
C         46.62128        33.63252         0.86523
C         47.89669        35.81939         0.96573
C         46.56472        35.13589         0.89836
C         47.84539        37.34102         1.18402
C         46.54883        38.00125         1.57625
C         47.88438        40.22573         1.88123
C         46.52427        39.49865         1.78736
C         47.72864        41.77244         1.62029
C         46.51747        42.43612         1.57047
C         47.81548        44.63630         1.27970
C         46.43142        43.95313         1.59983
C         47.53306        46.08288         1.55034
C         46.45838        46.62432         1.27743
C         50.04345        29.18060        -2.05402
C         48.89880        29.57597        -1.20429
C         50.01977        31.86884        -1.29577
C         48.68754        31.10840        -1.30920
C         49.89010        33.39995        -1.32734
C         48.88754        33.91632        -0.31251
C         50.09891        36.15986        -0.27278
C         48.72945        35.41166        -0.29388
C         49.88304        37.68303        -0.39746
C         48.91764        38.25115         0.65487
C         50.18619        40.41622         0.75104
C         48.91049        39.59503         0.88955
C         49.94206        41.95531         0.53045
C         48.95579        42.49799         1.53799
C         50.28100        44.57224         1.77181
C         48.94063        43.93418         2.08553
C         50.88593        29.92928        -2.57210
C         52.00756        32.31286        -2.69541
C         50.94341        31.34666        -2.89985
C         52.11846        33.50875        -2.35320
C         51.29421        34.11492        -1.21509
C         52.72968        36.35978        -0.91491
C         51.04499        35.61047        -1.35584
C         52.27976        37.50010        -0.53446
C         51.24754        38.37456        -0.32968
C         52.46760        40.65233        -0.11391
C         51.19441        39.85656        -0.36467
C         52.35818        41.88589         0.13032
C         51.35008        42.72665         0.58666
C         51.15461        44.01406         1.05378
O         37.38742        44.81946         0.16567
O         31.60161        35.11985         2.51701
O         44.79846        26.40092         0.90312
O         43.96265        39.75475        -0.48305
O         37.51566        38.80947        -1.97180
O         45.60857        39.73414         2.91916
O         38.03953        40.12776         1.44045
O         47.46844        37.48078         2.60151
O         36.96338        43.71678        -3.29623
O         38.63261        35.85944         2.45938
O         40.96171        46.28887        -1.66425
O         33.51195        41.10308        -2.84471
O         42.51431        27.52243         1.46072
O         41.55768        34.24063        -0.73511
O         39.59787        41.50663        -2.16606
O         48.69968        29.00004         0.10752
O         40.11776        33.54367         2.53738
O         39.68476        31.07773         2.48041
O         44.65851        35.38559        -0.87167
O         48.45694        40.09114         3.12122
O         43.32771        31.21339         2.46959
H         42.57988        31.40193         3.07456
O         43.44301        45.90228        -1.65922
H         42.65005        45.80192        -2.24429
O         34.70728        42.94619        -4.32416
H         35.66242        42.97366        -4.55797
O         41.56551        38.50833         2.46017
H         41.31529        37.73992         3.01428
O         39.87946        29.57952        -1.19008
H         40.58237        29.32371        -1.82689
O         32.87844        40.50303         0.72746
H         32.34217        41.32644         0.81548
O         46.14455        44.30950         2.97116
H         45.40306        43.73353         3.27895
O         44.79720        42.02980        -0.69480
H         44.08182        42.03511        -1.37676
O         39.70259        35.86634        -0.92535
H         40.32787        36.34116        -1.51397
O         50.82744        40.26640         2.01077
H         50.09445        40.17158         2.70356
O         47.97946        31.34221        -2.54189
H         48.60812        31.20548        -3.29834
O         48.50983        31.43019         1.09793
H         48.71554        30.47118         1.20037
O         48.59289        35.26704         2.11984
H         48.30678        35.79124         2.90440
O         37.69989        42.45673         0.81146
H         37.72319        41.82468         1.57521
O         31.45235        30.48217         3.05865
H         30.60567        30.05423         3.29905
O         44.64736        42.08314         2.97482
H         45.06981        41.42714         3.58580
O         48.11014        44.52176        -0.10203
H         47.45901        45.08214        -0.60663
O         34.25483        37.29705        -1.90972
H         33.59068        37.81269        -2.44332
O         50.78400        35.95310         0.96753
H         50.19970        35.47129         1.60839
O         38.98313        27.55731        -2.35301
H         38.19539        27.29723        -2.87661
O         49.31651        37.98009        -1.68273
H         49.32539        38.95880        -1.81411
O         43.50622        31.08958        -1.17444
H         44.20893        30.74178        -1.78211
O         33.95720        35.76728         2.52821
H         34.36735        35.06206         3.08951
O         42.17801        41.95613        -1.64384
H         41.31758        41.84719        -2.15635
O         32.11494        38.86060        -2.50108
H         32.26046        39.63992        -3.08693
O         41.15801        24.40966         0.63185
H         40.29252        24.64096         1.03473
O         41.29471        48.44109         1.24163
H         41.13630        49.38695         1.43333
O         41.55466        38.96628        -1.13476
H         41.69597        39.75793        -1.70281
O         34.35478        33.45665        -0.34194
H         33.66360        33.86636        -0.92183
O         38.66755        46.83310         1.13053
H         38.38924        45.96433         1.50214
O         42.22575        41.87088         1.99159
H         42.93472        41.89872         2.67877
O         39.86158        43.94607        -2.42941
H         39.78809        43.07017        -2.90368
O         50.76914        31.40393        -0.24325
H         51.43745        32.07573         0.03617
O         45.10813        35.32636         2.75569
H         45.65386        35.92075         3.31722
O         37.31665        37.99467         2.27832
H         37.90694        37.59470         2.95622
O         32.70142        35.31995        -0.91047
H         33.24862        35.86464        -1.54257
O         50.70837        40.24259        -1.64976
H         51.34417        39.93988        -2.33194
O         43.65672        46.78777         1.85996
H         44.42563        47.09560         2.38718
O         46.86609        33.38191        -1.50890
H         46.42140        34.26344        -1.46555
O         37.56767        39.91778        -2.87147
H         38.43438        40.41006        -2.64866
O         49.39868        42.17550        -0.76483
H         48.93941        43.05636        -0.76496
O         50.79407        36.00221        -2.61693
H         51.27576        35.41080        -3.23867
O         44.13850        34.36248        -1.75407
H         43.15018        34.38938        -1.60411
O         35.01682        33.33794         3.22324
H         35.87717        33.10998         3.65762
O         47.09558        33.18354         2.15923
H         46.47174        33.54247         2.82825
O         37.61752        32.04723        -0.35429
H         37.60273        31.23080        -0.89834
O         36.73169        30.43702         2.83509
H         35.89609        30.08445         3.20868
O         47.93783        35.88598        -1.40458
H         48.45625        35.74765        -2.22964
O         50.18996        31.62424        -4.04127
H         50.15783        32.60030        -4.16064
O         37.72002        32.82587         3.21853
H         38.60834        32.47803         3.48129
O         51.89112        33.81234         0.02178
H         52.56817        34.50619         0.20925
O         45.82443        29.78852        -2.07565
H         46.46679        30.42675        -2.49202
O         39.81900        44.22556         1.21949
H         39.08594        43.55456         1.21419
O         38.97759        28.69496         2.22690
H         38.33404        29.15830         2.81260
O         48.63568        43.97329         3.44509
H         49.21893        43.36095         3.93674
O         31.90245        42.96740        -0.00823
H         31.15350        43.58650         0.11806
O         39.84073        26.70398         1.11808
H         40.55683        26.98162         1.73790
O         41.58827        27.15424        -2.03432
H         40.74236        27.06815        -2.53969
O         49.34265        33.77687        -2.63037
H         48.37213        33.53603        -2.58418
O         45.92870        46.09818        -0.93646
H         45.17352        46.15838        -1.57888
