         600
 CSIRO Nanostructure Databank - Neutral Graphene Oxide Data Set
C         22.97012        27.38011        -0.12547
C         22.97090        28.75667        -0.17141
C         22.98406        31.67828        -0.23114
C         22.98912        33.05916        -0.26029
C         23.00155        35.96312        -0.46090
C         23.01075        37.35317        -0.51963
C         22.97162        40.24036         0.04152
C         22.98390        41.56249         0.31776
C         22.95942        44.50964         0.27112
C         22.91821        45.86483         0.29713
C         25.39051        24.54263        -0.02189
C         24.20192        25.23515        -0.05232
C         25.42557        27.36264        -0.16881
C         24.19155        26.65549        -0.11548
C         25.42214        28.79201        -0.21904
C         24.18558        29.49546        -0.21191
C         25.42709        31.64861        -0.26725
C         24.19106        30.93946        -0.23976
C         25.43150        33.07914        -0.28157
C         24.19894        33.78854        -0.29151
C         25.43514        35.94639        -0.27654
C         24.20050        35.23731        -0.33407
C         25.43343        37.37463        -0.28809
C         24.20385        38.07188        -0.40748
C         25.45760        40.24340        -0.12958
C         24.17997        39.57209        -0.56436
C         25.44261        41.64549         0.09461
C         24.20072        42.34590         0.22847
C         25.43096        44.44662         0.49339
C         24.19487        43.75396         0.38837
C         25.44044        45.88410         0.77560
C         24.10030        46.65407         0.66799
C         25.39644        48.72404         0.38814
C         24.20177        48.07312         0.33265
C         27.92096        23.09489         0.22177
C         27.88986        24.49362        -0.01567
C         26.64305        25.21785        -0.07018
C         27.89732        27.35153        -0.24200
C         26.65727        26.63849        -0.16422
C         27.89650        28.78189        -0.28279
C         26.66253        29.50499        -0.26447
C         27.90036        31.64845        -0.32585
C         26.66763        30.93176        -0.28426
C         27.90331        33.08053        -0.31695
C         26.67328        33.79677        -0.28752
C         27.90801        35.94017        -0.23307
C         26.67889        35.22887        -0.25699
C         27.90814        37.37848        -0.14612
C         26.67885        38.08923        -0.19082
C         27.91031        40.23166         0.03539
C         26.67219        39.52532        -0.10485
C         27.91322        41.65030         0.13544
C         26.67751        42.35825         0.19361
C         27.91418        44.49742         0.39707
C         26.66938        43.77179         0.36050
C         27.91559        45.91894         0.48898
C         26.68846        46.63758         0.60460
C         27.90770        48.76564         0.59644
C         26.65712        48.04219         0.57363
C         27.94058        50.18493         0.59394
C         30.35339        23.05781         0.12137
C         29.10949        22.40129         0.30783
C         30.33958        24.44850        -0.13623
C         29.12627        25.18558        -0.17606
C         30.34173        27.35626        -0.36940
C         29.12901        26.63251        -0.29401
C         30.35800        28.77559        -0.34290
C         29.12877        29.49761        -0.32834
C         30.36850        31.63684        -0.44162
C         29.13813        30.93165        -0.36452
C         30.37503        33.07823        -0.43491
C         29.14166        33.79482        -0.34514
C         30.38529        35.93015        -0.32550
C         29.14997        35.22447        -0.30149
C         30.39763        37.37510        -0.15244
C         29.14159        38.08624        -0.02827
C         30.36801        40.23800         0.14313
C         29.14587        39.51252         0.06194
C         30.38239        41.64567         0.15405
C         29.14700        42.37195         0.18774
C         30.39429        44.51340         0.27745
C         29.14790        43.79059         0.28678
C         30.39770        45.92000         0.39617
C         29.15460        46.64026         0.49593
C         30.41438        48.79069         0.89405
C         29.13429        48.04791         0.60084
C         30.38169        50.24758         0.50534
C         29.14077        50.89030         0.48587
C         32.85366        20.23808         0.33189
C         31.65292        20.92994         0.27259
C         32.85818        23.04470         0.13770
C         31.61370        22.33486         0.16953
C         32.87799        24.45494        -0.04886
C         31.61869        25.12301        -0.40936
C         32.87240        27.35425        -0.27587
C         31.61488        26.64018        -0.52907
C         32.84725        28.77545        -0.29215
C         31.60434        29.48773        -0.36664
C         32.84704        31.60810        -0.47319
C         31.60793        30.90866        -0.44015
C         32.87160        33.07325        -0.81734
C         31.59184        33.79766        -0.49388
C         32.87996        35.91463        -0.38970
C         31.61071        35.20747        -0.41503
C         32.84371        37.40573        -0.64786
C         31.59575        38.06749        -0.13364
C         32.87924        40.25864        -0.04243
C         31.64990        39.48375         0.37061
C         32.85926        41.63244        -0.08841
C         31.62685        42.37631         0.08362
C         32.87755        44.51911         0.06496
C         31.62775        43.78362         0.12168
C         32.87150        45.95039         0.17478
C         31.64406        46.65816         0.34802
C         32.86047        48.79556         0.29540
C         31.65612        48.06469         0.45174
C         32.85495        50.23957         0.26369
C         31.62019        50.95572         0.33983
C         32.83625        53.05229         0.04630
C         31.65029        52.36899         0.23187
C         35.39735        18.78901         0.36647
C         35.35560        20.20174         0.34723
C         34.09669        20.91130         0.31145
C         35.32736        23.05892         0.25520
C         34.09422        22.33323         0.23226
C         35.29678        24.47399         0.26132
C         34.08398        25.18652         0.04966
C         35.28438        27.38736         0.03535
C         34.07568        26.64625        -0.06326
C         35.30519        28.78672        -0.14984
C         34.07512        29.49255        -0.26427
C         35.31296        31.63853        -0.27043
C         34.06414        30.91986        -0.35777
C         35.28043        33.07681        -0.13109
C         34.10405        33.77619        -0.29968
C         35.35739        35.91939        -0.15563
C         34.08032        35.22561        -0.24992
C         35.36913        37.37696        -0.39658
C         34.11196        38.13565        -0.28694
C         35.37353        40.23830         0.02107
C         34.13082        39.51348        -0.15152
C         35.36829        41.67496         0.03266
C         34.12133        42.38147        -0.45002
C         35.33332        44.53765         0.03204
C         34.09756        43.83810        -0.05705
C         35.34256        45.96654         0.06794
C         34.09680        46.67157         0.11754
C         35.32697        48.81508         0.05147
C         34.09138        48.09583         0.14503
C         35.32173        50.23513        -0.00129
C         34.07507        50.94920         0.07134
C         35.30941        53.07902        -0.30319
C         34.07016        52.36839        -0.05149
C         35.31999        54.46067        -0.57876
C         37.83523        18.78695         0.27997
C         36.59626        18.10375         0.32710
C         37.83234        20.21113         0.32481
C         36.58921        20.92480         0.34054
C         37.82084        23.06717         0.35351
C         36.58037        22.35370         0.32317
C         37.83656        24.49958         0.40341
C         36.54989        25.19521         0.53071
C         37.81245        27.39818         0.15189
C         36.53603        26.71631         0.40532
C         37.77544        28.79137        -0.17004
C         36.56270        29.50392        -0.21721
C         37.77128        31.70540        -0.25081
C         36.53700        30.94647        -0.27198
C         37.79129        33.06310         0.04407
C         36.50942        33.77098         0.41233
C         37.80835        35.93398         0.26478
C         36.54106        35.24804         0.08738
C         37.85524        37.36726         0.28137
C         36.66724        38.11592        -0.15721
C         37.80439        40.22887         0.43750
C         36.60268        39.55386         0.13939
C         37.74775        41.68226         0.81853
C         36.53381        42.38674         0.26756
C         37.79134        44.52581         0.27953
C         36.56422        43.82407         0.16826
C         37.81382        45.95007         0.14853
C         36.57267        46.66972         0.05207
C         37.77951        48.82646        -0.08399
C         36.56648        48.10678        -0.00236
C         37.78359        50.23141        -0.13729
C         36.54934        50.94543        -0.13676
C         37.76988        53.05604        -0.58950
C         36.54442        52.36699        -0.31810
C         37.73207        54.44338        -0.87923
C         36.50780        55.11973        -0.88097
C         40.29521        15.96917        -0.15985
C         39.11394        16.64946         0.04197
C         40.30487        18.79058         0.07056
C         39.08282        18.06732         0.14644
C         40.32094        20.21732         0.23068
C         39.07290        20.93369         0.35882
C         40.28976        23.09910         0.63282
C         39.04485        22.34555         0.42886
C         40.30690        24.55279         0.40571
C         39.03712        25.25077         0.38040
C         40.31312        27.43758         0.40534
C         39.00990        26.68430         0.26784
C         40.30714        28.82913        -0.18283
C         39.04674        29.45914        -0.49365
C         40.29810        31.71483        -0.28815
C         39.03333        31.03597        -0.55840
C         40.27471        33.10584        -0.00356
C         39.02464        33.78485         0.11514
C         40.26817        35.84974         0.72941
C         39.00303        35.18955         0.37080
C         40.26323        37.39127         0.90921
C         39.01659        38.09101         0.57101
C         40.26854        40.24452         0.67115
C         39.02638        39.52644         0.53844
C         40.26270        41.68082         0.62402
C         39.04213        42.40379         0.56681
C         40.27027        44.52509         0.45677
C         39.03720        43.80531         0.42775
C         40.26616        45.95703         0.39015
C         39.04790        46.64638         0.18366
C         40.15406        48.88733         0.58648
C         39.10204        48.10534        -0.20180
C         40.26550        50.29421         0.01088
C         39.04223        50.96005        -0.23629
C         40.26379        53.04057        -0.77846
C         39.02004        52.34244        -0.54867
C         40.24006        54.39665        -1.08563
C         38.97304        55.16716        -1.33443
C         40.28060        57.24131        -0.82969
C         39.09756        56.58640        -0.81210
C         42.74265        15.98595        -0.53000
C         41.52235        16.67184        -0.28285
C         42.76223        18.80219        -0.29288
C         41.52998        18.09150        -0.16110
C         42.76956        20.22756        -0.14865
C         41.55709        20.90229         0.15969
C         42.81748        23.09824         0.09988
C         41.61629        22.33748         0.46634
C         42.77562        24.50929         0.04759
C         41.52368        25.20261         0.18881
C         42.76999        27.39434        -0.36183
C         41.48745        26.64682        -0.12570
C         42.77703        28.86619        -0.25356
C         41.51600        29.54821        -0.29439
C         42.75435        31.70162        -0.22303
C         41.51112        30.99146        -0.31368
C         42.73165        33.12132        -0.12217
C         41.52453        33.81931         0.06472
C         42.75705        35.94643         0.48333
C         41.54140        35.21507         0.39573
C         42.74993        37.37609         0.74403
C         41.53544        38.10364         0.80699
C         42.72748        40.26740         0.80877
C         41.50715        39.54407         0.75217
C         42.73215        41.67559         0.72811
C         41.49909        42.39429         0.62396
C         42.73826        44.54103         0.66129
C         41.50076        43.82072         0.58073
C         42.72655        45.98284         0.63964
C         41.50529        46.66906         0.55012
C         42.77209        48.89591         0.51613
C         41.47811        48.14207         0.69792
C         42.75399        50.29901         0.05704
C         41.51010        50.96774        -0.15598
C         42.76073        52.97450        -0.84235
C         41.52343        52.32833        -0.62083
C         42.79829        54.36321        -1.33520
C         41.47510        55.12510        -1.40407
C         42.72987        57.23648        -1.24405
C         41.51450        56.58011        -1.20394
C         43.92647        16.67715        -0.65619
C         45.21199        18.82610        -0.64915
C         43.97198        18.09559        -0.54080
C         45.21965        20.24605        -0.50991
C         43.99992        20.95191        -0.26535
C         45.24434        23.09872        -0.30079
C         44.01277        22.38006        -0.17670
C         45.24171        24.52361        -0.22818
C         44.00618        25.24306        -0.15596
C         45.24946        27.38370        -0.19281
C         44.03181        26.65548        -0.23223
C         45.25773        28.82530        -0.22157
C         43.99612        29.56287        -0.24923
C         45.23585        31.73268        -0.15938
C         43.99210        30.99174        -0.21713
C         45.24515        33.10135        -0.09569
C         43.99223        33.89912        -0.34773
C         45.22260        35.97718         0.35704
C         43.99712        35.29138         0.23279
C         45.20750        37.39606         0.63902
C         43.99392        38.07762         0.78488
C         45.23982        40.28087         0.80405
C         43.98999        39.53413         1.19317
C         45.22152        41.67562         0.73990
C         43.97063        42.40866         0.77720
C         45.23987        44.54934         1.05736
C         43.95303        43.81526         0.77378
C         45.21492        46.01098         0.66991
C         43.99435        46.71341         0.60576
C         45.23304        48.83421         0.25151
C         44.01666        48.12111         0.39572
C         45.23640        50.24039        -0.03679
C         43.98539        50.94789        -0.18818
C         45.24757        53.02057        -0.74833
C         43.99518        52.32007        -0.58934
C         45.27195        54.42026        -1.02388
C         44.03360        55.15070        -1.20249
C         43.96391        56.53386        -1.28576
C         47.63432        18.85548        -0.95330
C         46.44251        18.16329        -0.88696
C         47.68044        20.26376        -0.79785
C         46.45723        20.96423        -0.59606
C         47.70466        23.10434        -0.49696
C         46.46776        22.39003        -0.47063
C         47.70382        24.51824        -0.33686
C         46.47447        25.23669        -0.24537
C         47.71515        27.37209        -0.06411
C         46.48301        26.66516        -0.16717
C         47.70249        28.80275        -0.01001
C         46.47746        29.51190        -0.17178
C         47.74247        31.69356         0.17768
C         46.53823        30.99972        -0.42607
C         47.73981        33.07774         0.23556
C         46.54069        33.85910        -0.25147
C         47.67933        35.95876         0.53349
C         46.48035        35.28648         0.26516
C         47.68362        37.40927         0.63494
C         46.45781        38.12282         0.66076
C         47.68770        40.26195         0.48152
C         46.45861        39.55114         0.65783
C         47.69587        41.68004         0.38353
C         46.45157        42.41174         0.50922
C         47.63371        44.56657         0.20435
C         46.43228        43.80068         0.51402
C         47.66469        45.99138         0.53513
C         46.45334        46.71363         0.60200
C         47.68847        48.85776         0.30083
C         46.47281        48.14571         0.41586
C         47.70805        50.22234        -0.07869
C         46.46537        50.91815        -0.24286
C         47.72244        52.99530        -0.73440
C         46.47828        52.31736        -0.57683
C         47.70753        54.38144        -1.01354
C         46.51785        55.07447        -1.13862
C         50.17352        20.31410        -0.97475
C         48.93286        20.98552        -0.81771
C         50.18364        23.11806        -0.63101
C         48.94159        22.39820        -0.65144
C         50.16220        24.52634        -0.44126
C         48.94525        25.22634        -0.27848
C         50.17810        27.32082         0.17024
C         48.95125        26.64693        -0.07603
C         50.11447        28.72865         0.59874
C         48.90858        29.51215         0.29425
C         50.18088        31.59717         0.68160
C         48.94066        30.91699         0.42714
C         50.14963        33.05615         0.88208
C         48.91609        33.81577         0.59340
C         50.18794        35.93048         0.87820
C         48.91137        35.20754         0.66103
C         50.18541        37.43762         0.75996
C         48.90225        38.13647         0.59575
C         50.17592        40.24387         0.32877
C         48.92127        39.53883         0.45491
C         50.16173        41.65847         0.26769
C         48.94468        42.35610         0.28462
C         50.20514        44.56398         0.42433
C         48.97415        43.82195         0.12010
C         50.21748        45.93522         0.54041
C         48.94005        46.65627         0.70664
C         50.23000        48.83348         0.28131
C         48.95688        48.19605         0.61935
C         50.21573        50.19578        -0.09952
C         48.96505        50.89978        -0.25493
C         50.22318        52.91943        -0.80576
C         48.97305        52.27500        -0.59713
C         51.37250        20.99259        -0.90697
C         52.68380        23.06260        -0.52578
C         51.42450        22.39635        -0.71107
C         52.73692        24.52785        -0.56792
C         51.40833        25.30221        -0.49975
C         52.67389        27.32884         0.27249
C         51.42062        26.67489         0.03069
C         52.70316        28.74612         0.52966
C         51.44241        29.46994         0.77397
C         52.67440        31.62978         0.57390
C         51.41880        30.93533         0.69264
C         52.70614        33.04252         0.50046
C         51.48282        33.80149         0.78871
C         52.58830        35.93322         0.16143
C         51.45042        35.24476         0.54462
C         52.58338        37.36642         0.07153
C         51.42420        38.11163         0.32986
C         52.67184        40.24240         0.16592
C         51.40678        39.53081         0.21389
C         52.70377        41.67485         0.26643
C         51.43198        42.43985         0.00105
C         52.72038        44.54493         0.52114
C         51.44148        43.76873         0.74589
C         52.70070        45.96821         0.55489
C         51.45998        46.68043         0.58018
C         52.69084        48.80658         0.28208
C         51.44567        48.09895         0.40007
C         52.69373        50.19903        -0.01717
C         51.46066        50.88452        -0.27096
C         51.41946        52.25439        -0.64687
C         55.09317        23.06653        -0.09412
C         53.88431        22.38527        -0.26755
C         55.16494        24.47204        -0.02496
C         53.95390        25.22344        -0.12474
C         55.16379        27.25856         0.54806
C         53.89920        26.59458         0.18767
C         55.17507        28.77836         0.63521
C         53.89319        29.48062         0.50226
C         55.13818        31.61914         0.28248
C         53.90597        30.91419         0.45723
C         55.12853        33.03229         0.09784
C         53.89166        33.72559         0.18618
C         55.11056        35.87851        -0.46362
C         53.81508        35.15776        -0.17582
C         55.11540        37.37955        -0.47053
C         53.82138        38.10440        -0.24784
C         55.16806        40.18685         0.43735
C         53.86250        39.53356         0.08850
C         55.16599        41.67825         0.23263
C         53.91717        42.37914         0.30775
C         55.16908        44.53534         0.29842
C         53.92021        43.83396         0.37199
C         55.18676        45.96422         0.43959
C         53.94403        46.69012         0.54468
C         55.14230        48.88271         0.68746
C         53.91665        48.10501         0.50011
C         55.11123        50.30255         0.35761
C         53.95073        50.90148        -0.02546
C         57.68413        24.50487        -0.04065
C         56.43745        25.17682         0.08452
C         57.64564        27.32193         0.25422
C         56.43744        26.57467         0.26461
C         57.64817        28.76733         0.28726
C         56.42914        29.50032         0.37598
C         57.62779        31.61977         0.07511
C         56.39567        30.90061         0.23076
C         57.61859        33.04798        -0.05106
C         56.37289        33.76266        -0.08654
C         57.60809        35.90292        -0.29202
C         56.38482        35.16243        -0.24945
C         57.61704        37.34865        -0.33102
C         56.39731        38.09433        -0.24741
C         57.62513        40.21090        -0.15366
C         56.40337        39.47431        -0.06014
C         57.61656        41.64737        -0.11748
C         56.37036        42.36927         0.07610
C         57.59968        44.51767        -0.11135
C         56.37534        43.81182         0.09239
C         57.60540        45.94580        -0.04500
C         56.42340        46.64822         0.33150
C         57.75311        48.78335         0.24607
C         56.52320        48.08099         0.61393
C         58.87028        25.20747        -0.00758
C         60.09830        27.35662         0.06053
C         58.87783        26.62210         0.11049
C         60.09456        28.72961         0.07404
C         58.87621        29.47191         0.15116
C         60.07050        31.65423        -0.04572
C         58.86176        30.90982         0.07029
C         60.06181        33.02286        -0.15470
C         58.84346        33.76064        -0.16286
C         60.05683        35.94177        -0.31948
C         58.84218        35.19825        -0.25889
C         60.06007        37.31430        -0.37446
C         58.84492        38.05815        -0.35820
C         60.03636        40.25048        -0.53829
C         58.84199        39.50200        -0.36189
C         60.01984        41.62718        -0.53997
C         58.81650        42.35898        -0.34116
C         59.98232        44.55386        -0.64455
C         58.81417        43.81391        -0.36804
C         59.97841        45.94495        -0.63681
C         58.81315        46.65976        -0.31181
C         58.82860        48.09811        -0.22078
O         42.12357        54.60709        -2.62120
O         24.67282        46.28202         1.95873
O         52.13674        25.13249        -1.76456
O         55.92023        48.51852         1.86337
O         31.66588        25.78153        -1.72805
O         54.38140        37.90672        -1.62900
O         54.29918        35.34221        -1.55797
O         48.27853        44.27173        -1.09087
O         50.27808        36.77259         2.07790
O         36.47377        26.06508         1.72316
O         40.20480        36.48475         2.05522
O         39.02013        30.20647        -1.74943
O         41.07343        22.66822         1.79231
O         36.22520        37.77736        -1.53241
O         41.89704        26.93604        -1.48801
O         55.18573        27.93583         1.84922
O         48.96577        47.51360         1.90995
O         42.19305        48.64734         1.87883
O         50.86618        33.47245         2.08605
O         50.68561        28.95853         1.92847
O         39.63458        49.02507         1.93049
H         40.40902        49.19835         2.51391
O         51.44333        42.76387        -1.42038
H         51.41462        41.92438        -1.92519
O         38.84428        55.28228        -2.79779
H         39.73785        55.47107        -3.15834
O         46.73331        33.97651        -1.71722
H         45.86208        34.29469        -2.07304
O         30.50603        48.80618         2.38099
H         29.70181        49.26328         2.70925
O         32.97419        33.12534        -2.29207
H         33.78856        32.63999        -2.54498
O         51.38261        43.45018         2.16930
H         51.38571        44.29292         2.67057
O         39.52309        48.14801        -1.59958
H         38.83540        47.70220        -2.13700
O         43.99103        39.52297         2.67181
H         43.18687        39.04013         2.96042
O         44.01891        34.14300        -1.83846
H         43.76184        33.29708        -2.26776
O         31.77014        39.35153         1.85150
H         31.63692        40.24636         2.23224
O         55.24827        40.00425         1.91753
H         54.54156        40.55656         2.31762
O         37.57889        41.69741         2.29373
H         36.73559        41.23767         2.49317
O         24.08103        39.80578        -2.02116
H         24.10629        40.77674        -2.15894
O         32.75553        37.51720        -2.12041
H         33.62169        37.23731        -2.48873
O         36.41576        33.67276         1.87777
H         35.59939        34.14088         2.15352
O         34.18309        42.37358        -1.92043
H         35.03041        42.79236        -2.18127
O         46.73025        31.13027        -1.88044
H         46.82843        32.10108        -2.06415
O         40.56026        27.56054         1.84704
H         39.71007        27.76595         2.29023
O         45.40397        44.53693         2.52514
H         44.61820        44.97793         2.91313
H         22.01985        26.82820        -0.09086
H         22.00691        29.28163        -0.17287
H         22.01665        31.16098        -0.20327
H         22.02521        33.58375        -0.25050
H         22.03900        35.44336        -0.54725
H         22.05915        37.88032        -0.66938
H         22.03677        39.67397         0.15660
H         22.06844        42.04738         0.68605
H         22.04082        43.95941         0.02298
H         21.98886        46.39731         0.04513
H         25.35917        23.44645         0.02773
H         23.24516        24.69429        -0.02186
H         25.41000        49.80008         0.16721
H         23.29432        48.60572         0.01131
H         26.98438        22.54156         0.36843
H         27.00389        50.75644         0.59994
H         29.07746        21.32492         0.52115
H         29.08231        51.97933         0.35217
H         32.81774        19.14321         0.40144
H         30.71938        20.35231         0.29181
H         32.80297        54.14749        -0.02085
H         30.72001        52.94713         0.30602
H         34.46594        18.20882         0.39138
H         34.38377        55.03323        -0.59947
H         36.56801        17.00672         0.32360
H         36.47209        56.18531        -1.14552
H         40.29454        14.87282        -0.24274
H         38.18349        16.07169         0.11525
H         40.33456        58.29786        -0.52470
H         38.18741        57.12500        -0.51020
H         42.73018        14.89030        -0.62165
H         42.75425        58.33081        -1.13615
H         44.84786        16.11106        -0.84528
H         44.88427        57.13244        -1.24653
H         48.55732        18.28771        -1.12805
H         46.46625        17.07319        -1.01327
H         48.64717        54.93624        -1.12859
H         46.55435        56.14989        -1.35653
H         50.19772        19.22840        -1.13438
H         50.25484        53.97614        -1.10046
H         52.30630        20.42552        -1.01994
H         52.35148        52.80845        -0.81871
H         56.00525        22.46970         0.03942
H         53.89754        21.28754        -0.22487
H         56.03100        50.89550         0.45086
H         53.96902        51.97268        -0.26577
H         57.71105        23.41488        -0.17169
H         57.81389        49.86849         0.40534
H         59.82800        24.67631        -0.10609
H         61.04737        26.80735        -0.02091
H         61.05450        29.25734         0.00374
H         61.03832        31.13677        -0.04577
H         61.02314        33.54519        -0.24027
H         61.02186        35.41915        -0.30929
H         61.02485        37.83755        -0.40083
H         60.99247        39.73566        -0.70016
H         60.96664        42.15953        -0.69810
H         60.92376        44.03874        -0.87515
H         60.90405        46.49558        -0.85751
H         59.75816        48.62923        -0.47270
