         424
 CSIRO Nanostructure Databank - Neutral Graphene Oxide Data Set
C          1.72524         2.08179        -2.65436
C          1.68374         3.48778        -2.60597
C          2.90324         1.39854        -2.41605
C          2.82560         4.23731        -2.29226
C          1.68294         6.43700        -2.63531
C          1.67897         7.83272        -2.58794
C          2.81875         5.70094        -2.27183
C          2.80452         8.55558        -2.17170
C          1.57911        10.68715        -1.88642
C          1.54386        12.10482        -1.68482
C          2.75680        10.00553        -2.07169
C          2.67218        12.87915        -1.69680
C          1.42675        15.06681        -1.63836
C          1.41261        16.44494        -1.52664
C          2.63426        14.32679        -1.51968
C          2.61129        17.16378        -1.28627
C          2.64443        18.59129        -1.24264
C          4.09284         2.11467        -2.10079
C          4.04056         3.54265        -2.01077
C          5.31613         1.44189        -1.87538
C          5.22825         4.25898        -1.67125
C          3.99025         6.41470        -1.86345
C          3.99285         7.84306        -1.79969
C          5.17422         5.70931        -1.49888
C          5.15265         8.53147        -1.33136
C          4.04227        10.74830        -2.04724
C          4.01690        12.27998        -2.06034
C          5.24420         9.99916        -1.52519
C          5.15161        12.90836        -1.25953
C          3.83565        15.00692        -1.23088
C          3.82758        16.43627        -1.11333
C          5.05581        14.24803        -0.97997
C          5.03446        17.15941        -0.92084
C          3.82550        19.27302        -1.06761
C          5.06322        18.57143        -0.90403
C          6.50267         2.15498        -1.61989
C          6.44083         3.58000        -1.54302
C          7.72796         1.46113        -1.35090
C          7.68880         4.42684        -1.41237
C          6.26223         6.39925        -0.94911
C          6.27334         7.81681        -0.86584
C          7.37483         5.54592        -0.37371
C          7.45822         8.52202        -0.36140
C          6.33244        10.76049        -0.87421
C          6.32359        12.13608        -0.84730
C          7.41252        10.02039        -0.11379
C          7.51343        12.86382        -0.36932
C          6.16072        14.98218        -0.26348
C          6.28279        16.39464        -0.79265
C          7.48042        14.25952        -0.24676
C          7.55291        17.14710        -0.49111
C          6.28752        19.27491        -0.66640
C          7.49360        18.62174        -0.39833
C          8.91441         2.12646        -1.01857
C          8.94871         3.61333        -1.09227
C         10.06669         1.43938        -0.58677
C         10.07804         4.28473        -0.38418
C          8.60106         6.35674         0.06531
C          8.57864         7.84464         0.02670
C          9.92577         5.67069         0.13480
C          9.74434         8.53798         0.73231
C          8.79160        10.67576        -0.37183
C          8.72781        12.16749        -0.13540
C          9.87896        10.01417         0.42374
C          9.89359        12.86200         0.26877
C          8.66129        15.00065         0.08761
C          8.65102        16.40558         0.12124
C          9.87917        14.28361         0.37188
C          9.77195        17.16850         0.76111
C          8.69121        19.30117        -0.07535
C          9.86127        18.61498         0.31286
C         11.24111         2.08970        -0.09241
C         11.23378         3.51161         0.10939
C         12.41405         1.38451         0.23128
C         12.35942         4.21714         0.52942
C         11.18711         6.39823         0.40337
C         11.13046         7.90447         0.40372
C         12.31409         5.67813         0.66978
C         12.22304         8.53040         1.29870
C         11.06583        10.69949         0.69306
C         11.10857        12.14547         0.56500
C         12.27942        10.01693         1.06759
C         12.30166        12.84750         0.82249
C         11.08381        14.99973         0.63726
C         11.08449        16.42548         0.69070
C         12.30920        14.28547         0.81223
C         12.28197        17.13163         0.82253
C         11.07971        19.27892         0.45739
C         12.29379        18.58540         0.75341
C         13.60272         2.07047         0.60020
C         13.59647         3.50759         0.71486
C         14.82345         1.38114         0.76510
C         14.81194         4.20494         0.90609
C         13.53563         6.33438         1.28128
C         13.54926         7.83847         1.12823
C         14.80833         5.70304         0.72856
C         14.73771         8.53340         1.23912
C         13.50154        10.69850         1.15649
C         13.52994        12.14103         1.07995
C         14.74275         9.98090         1.30893
C         14.73718        12.84223         1.26876
C         13.51821        14.99450         1.02335
C         13.51856        16.42379         0.99368
C         14.74836        14.28463         1.24422
C         14.72840        17.14004         1.15411
C         13.50029        19.26891         0.88207
C         14.73271        18.57929         1.09597
C         16.02977         2.07124         1.01022
C         16.02327         3.51212         1.07680
C         17.26496         1.38459         1.10645
C         17.25158         4.21647         1.36761
C         16.03753         6.39621         1.25976
C         15.99658         7.80608         1.36235
C         17.22429         5.67508         1.48864
C         17.18787         8.52679         1.62976
C         15.96088        10.68363         1.47389
C         15.97370        12.13059         1.47720
C         17.18633         9.97042         1.63982
C         17.17879        12.83558         1.64887
C         15.94452        14.99633         1.44758
C         15.95101        16.43674         1.40145
C         17.19246        14.28841         1.66383
C         17.14320        17.15816         1.58692
C         15.94356        19.27171         1.21200
C         17.16736        18.58114         1.43191
C         18.46787         2.07692         1.34539
C         18.42900         3.50266         1.56331
C         19.71485         1.39914         1.30908
C         19.66259         4.16335         2.12753
C         18.41744         6.38763         1.79981
C         18.38041         7.79675         1.87301
C         19.67657         5.66416         1.94294
C         19.60487         8.55458         2.14621
C         18.41577        10.69024         1.74784
C         18.42818        12.12941         1.77202
C         19.63866         9.99833         1.87669
C         19.64687        12.81482         1.91113
C         18.36829        14.98227         1.88573
C         18.37599        16.47053         2.09237
C         19.65062        14.28268         2.24128
C         19.64565        17.13356         1.63182
C         18.40390        19.26276         1.44166
C         19.63757        18.54410         1.43732
C         20.95223         2.08556         1.40815
C         20.95938         3.49558         1.70070
C         22.18573         1.41696         1.24475
C         22.16038         4.17350         1.80999
C         20.86623         6.32438         2.01381
C         20.90224         7.79328         2.14163
C         22.15440         5.59855         2.30573
C         22.08556         8.51616         1.62115
C         20.87983        10.68437         1.83276
C         20.89118        12.12000         1.83576
C         22.11340         9.97993         1.70728
C         22.13026        12.80100         1.69726
C         20.88386        15.00114         1.74018
C         20.86117        16.39176         1.54142
C         22.19784        14.29055         1.93345
C         22.09652        17.09254         1.25743
C         20.85727        19.22062         1.21050
C         22.08465        18.51958         1.12229
C         23.41370         2.10136         1.36115
C         23.41910         3.50599         1.63840
C         24.66698         1.42071         1.29573
C         24.65949         4.19309         1.77704
C         23.39599         6.35047         1.92350
C         23.39502         7.74382         1.55595
C         24.66309         5.64346         2.06369
C         24.63962         8.52524         1.48606
C         23.32234        10.65701         1.46183
C         23.32345        12.09073         1.44540
C         24.56547         9.93289         1.29598
C         24.53179        12.78270         1.05322
C         23.36049        14.95707         1.24370
C         23.31727        16.37856         1.09330
C         24.51312        14.23599         0.92182
C         24.51687        17.07832         0.77971
C         23.29706        19.21098         0.89222
C         24.51504        18.51742         0.72660
C         25.86406         2.09820         1.42194
C         25.88463         3.52154         1.58925
C         27.14932         1.31425         1.49340
C         27.13239         4.26371         1.45741
C         25.96021         6.42519         1.88895
C         25.88592         7.87095         1.53686
C         27.15403         5.64723         1.50742
C         27.05474         8.59062         1.18773
C         25.74637        10.64659         0.95068
C         25.67993        12.06382         0.73304
C         26.98621         9.95128         0.82829
C         26.79207        12.71992        -0.04728
C         25.71314        14.92521         0.52512
C         25.71939        16.35766         0.53892
C         26.89688        14.21355         0.17728
C         26.92577        17.06283         0.27013
C         25.73026        19.20355         0.50822
C         26.93555        18.50088         0.28966
C         28.37842         2.12580         1.17291
C         28.36473         3.53116         1.15739
C         29.58142         1.42616         0.96599
C         29.56987         4.23318         0.84334
C         28.41499         6.39811         1.34702
C         28.36659         7.90552         1.21976
C         29.61633         5.67442         0.86947
C         29.53386         8.60117         0.63985
C         28.18313        10.66530         0.37917
C         28.11300        11.99028         0.02658
C         29.45061         9.92524         0.28399
C         29.27020        12.68958        -0.64038
C         28.08930        14.89855        -0.12236
C         28.11432        16.34625        -0.05403
C         29.31600        14.18849        -0.41326
C         29.29280        17.05935        -0.34235
C         28.15567        19.18508         0.08136
C         29.33344        18.48012        -0.22512
C         30.76570         2.09531         0.67546
C         30.75877         3.50864         0.56125
C         32.06968         1.33557         0.62048
C         31.97103         4.21758         0.20793
C         30.77169         6.36950         0.54683
C         30.86305         7.87524         0.74751
C         31.96663         5.64869         0.19075
C         31.94502         8.51088        -0.09022
C         30.64811        10.64616        -0.14751
C         30.59781        12.01623        -0.41931
C         31.87573         9.93377        -0.33225
C         31.78915        12.75046        -0.67545
C         30.50128        14.86962        -0.65017
C         30.46467        16.34644        -0.94737
C         31.76300        14.17923        -0.80764
C         31.78503        17.04589        -0.75762
C         30.57818        19.16890        -0.37640
C         31.78680        18.48942        -0.57667
C         33.08462         2.00789        -0.31211
C         33.14554         3.50815        -0.11307
C         34.43156         1.34538        -0.23680
C         34.35128         4.20482        -0.38386
C         33.13345         6.34714        -0.20783
C         33.06528         7.77452        -0.42661
C         34.34039         5.63803        -0.48469
C         34.21440         8.41606        -1.08877
C         33.01280        10.64089        -0.76814
C         33.01991        12.05496        -0.82251
C         34.20570         9.92385        -1.22684
C         34.24584        12.76711        -1.05359
C         32.97592        14.89190        -0.97808
C         32.95708        16.34365        -0.94570
C         34.23130        14.18504        -1.06819
C         34.22190        17.09708        -1.10880
C         33.02045        19.18322        -0.50887
C         34.24561        18.51891        -0.69356
C         35.60360         2.04446        -0.38638
C         35.58144         3.49247        -0.52794
C         36.88145         1.36850        -0.44311
C         36.78603         4.19491        -0.74127
C         35.53643         6.32234        -0.85349
C         35.52266         7.74431        -1.09548
C         36.76436         5.61199        -0.95315
C         36.67255         8.45946        -1.40454
C         35.48909        10.63402        -1.29342
C         35.48375        12.05381        -1.21039
C         36.68395         9.90634        -1.46095
C         36.71986        12.75622        -1.32325
C         35.48857        14.86937        -1.17341
C         35.51951        16.35329        -1.22475
C         36.69800        14.18732        -1.28606
C         36.77470        17.04386        -0.83420
C         35.47449        19.15692        -0.52190
C         36.71638        18.45197        -0.54900
C         38.05637         2.05761        -0.61829
C         38.04355         3.50541        -0.75534
C         39.33358         1.37116        -0.76906
C         39.23085         4.21904        -0.92619
C         37.96960         6.29696        -1.26608
C         37.91476         7.70659        -1.80398
C         39.19626         5.61438        -1.23877
C         39.19755         8.47164        -1.61160
C         37.93189        10.61807        -1.53385
C         37.93629        12.01831        -1.47168
C         39.19167         9.86381        -1.59293
C         39.24608        12.75901        -1.27932
C         37.92843        15.01345        -1.61413
C         37.97378        16.32785        -0.78434
C         39.19835        14.20147        -1.73319
C         39.14758        16.99895        -0.27794
C         37.91623        19.13677        -0.31510
C         39.12576        18.43147        -0.15049
C         40.49357         2.04921        -0.87692
C         40.55894         3.54301        -0.68004
C         41.67527         4.20500        -1.43737
C         40.42512         6.31343        -1.55837
C         40.42742         7.72290        -1.66275
C         41.61421         5.51617        -1.76893
C         41.65089         8.45979        -1.76904
C         40.43907        10.58560        -1.71037
C         40.44460        11.99273        -1.79515
C         41.65042         9.82592        -1.82052
C         41.58824        12.70628        -2.25241
C         40.28622        14.76235        -2.37458
C         40.33582        16.35177         0.19452
C         41.52246        14.04682        -2.53870
C         41.48502        17.06984         0.53388
C         40.31299        19.14886         0.18685
C         41.48091        18.47796         0.48535
O         20.34126         8.24983         3.40376
O         10.07319         4.16427        -1.86790
O         28.68200         7.27422         2.52670
O          5.06295        10.28001        -2.98462
O          9.08124         5.80599         1.36534
O         34.86218        16.88873        -2.43822
O         22.51247         7.99794         0.32442
O         33.91640         9.05027        -2.38251
O          7.23941        16.60755        -1.85552
O         25.47168         6.07825         3.23878
O          6.81193         4.89503         0.78890
H          7.47441         4.95856         1.51644
O         32.56933         1.78753        -1.66688
H         33.19501         2.20692        -2.29433
O         11.85128         8.28284         2.70109
H         12.32562         8.94221         3.25022
O         11.38422         8.31190        -0.97178
H         12.23392         7.91145        -1.25743
O         19.76568        14.34973         3.72657
H         19.40531        15.24367         3.98043
O         18.35756        16.65928         3.59784
H         17.43421        16.49683         3.89075
O         37.69557        15.51525        -2.98564
H         36.81601        15.95374        -3.02318
O          5.74387        15.13818         1.13255
H          5.68180        14.24428         1.53063
O         22.48207        14.43315         3.37925
H         21.61772        14.27883         3.84322
O         26.36228        12.58733        -1.46958
H         25.53768        13.10997        -1.57369
O         39.41337        12.72618         0.19829
H         39.40542        11.78028         0.46033
O         13.48341         6.04720         2.70259
H         12.75440         6.60232         3.07219
O          9.43856        17.23636         2.20143
H         10.16623        17.72635         2.64099
O          9.40939         8.43643         2.13910
H          9.34634         7.47208         2.34490
O         40.86385         3.74066         0.75103
H         40.13519         3.32618         1.26027
O         14.77474         5.95640        -0.71266
H         15.55923         5.52569        -1.11270
O         32.60052         1.25492         1.95358
H         32.67415         2.16428         2.30999
O          7.11299        10.18995         1.30119
H          7.78135         9.67002         1.81079
O         37.79680         7.55236        -3.27476
H         36.89183         7.22196        -3.46136
O         40.30200        15.02288         0.41944
H         41.16445        14.70432         0.74786
O         19.60231         3.95587         3.57949
H         20.37133         4.43998         3.96554
O         29.03107        12.54684        -2.08859
H         28.05747        12.64889        -2.22985
O         31.28722         8.06010         2.14294
H         30.52237         7.76567         2.69846
O         27.09029         0.14485         0.66644
H         27.06128         0.43209        -0.26893
O         30.22420        16.41694        -2.41215
H         30.93878        15.90316        -2.84718
O          7.87607         5.07587        -2.69005
H          8.82552         4.97414        -2.93753
O          4.24250        12.68448        -3.44209
H          4.89040        12.04125        -3.81362
O         22.18576         5.48697         3.78807
H         23.11516         5.31300         4.05611
O          9.13348        10.45878        -1.77960
H          9.90657         9.85186        -1.81877
O         40.27262        16.02861        -2.86838
H         39.33158        16.32134        -2.94312
H          0.80829         1.52705        -2.89830
H          0.73033         3.98852        -2.82201
H          2.93449         0.30109        -2.47406
H          0.77083         5.92414        -2.96848
H          0.77163         8.36974        -2.89729
H          0.62776        10.13940        -1.84004
H          0.56391        12.56157        -1.48530
H          0.48776        14.53968        -1.85743
H          0.46988        16.99739        -1.65062
H          1.70281        19.14514        -1.37107
H          5.34289         0.34277        -1.91825
H          3.83176        20.37256        -1.04901
H          7.71017         0.36099        -1.32597
H          6.25772        20.37425        -0.62294
H         10.05568         0.33895        -0.61193
H          8.72497        20.39774        -0.17090
H         12.44244         0.29108         0.11357
H         11.12962        20.36098         0.26034
H         14.84211         0.28577         0.66449
H         13.51180        20.36671         0.80914
H         17.28556         0.29227         0.97692
H         15.95396        20.36819         1.12345
H         19.72227         0.31638         1.11266
H         18.42112        20.35432         1.31031
H         22.18974         0.33396         1.05123
H         20.85361        20.31383         1.08695
H         24.68183         0.32974         1.15591
H         23.28646        20.30875         0.82374
H         27.25281         0.93802         2.55159
H         25.73588        20.30329         0.49636
H         29.57445         0.32898         1.03845
H         28.17811        20.28297         0.14126
H         31.89429         0.28777         0.27482
H         30.59394        20.26134        -0.24712
H         34.45804         0.24839        -0.15311
H         33.01942        20.25704        -0.26910
H         36.89460         0.27078        -0.36712
H         35.49075        20.22997        -0.27855
H         39.32120         0.27184        -0.82797
H         37.90578        20.22964        -0.19258
H         41.44335         1.50546        -0.99522
H         42.58952         3.62479        -1.63280
H         42.48358         5.98410        -2.25388
H         42.60860         7.92339        -1.80211
H         42.61247        10.35007        -1.89390
H         42.51570        12.16320        -2.48064
H         42.38527        14.57307        -2.96768
H         42.37753        16.52822         0.87762
H         40.27162        20.24592         0.22891
H         42.39258        19.03316         0.74527
