         404
 CSIRO Nanostructure Databank - Neutral Graphene Oxide Data Set
C          1.22008         3.37675         0.51684
C          0.02928         4.06976         0.64627
C          1.18020         6.22341         0.45574
C          0.00271         5.47488         0.61732
C          1.19536         7.66922         0.46943
C         -0.03566         8.40575         0.61511
C          1.20800        10.47995         0.99009
C         -0.04707         9.73849         0.87213
C          1.19807        12.04973         0.96045
C         -0.05768        12.78039         0.79881
C          1.17394        14.83267         0.27737
C         -0.05197        14.09140         0.44563
C          1.17060        16.24925         0.15373
C         -0.07663        16.98745         0.05347
C          1.03842        19.17486         0.21618
C         -0.15057        18.33985         0.01814
C          1.06361        20.60482        -0.09486
C         -0.08145        21.31675        -0.59530
C          0.90630        23.46150         0.15409
C         -0.14575        22.68022        -0.59534
C          0.96500        24.97218        -0.07799
C         -0.24228        25.72700        -0.31527
C          0.93284        27.90094        -0.22271
C         -0.24026        27.07412        -0.53877
C          1.12596        29.28462        -0.72376
C          0.11533        29.88649        -1.48871
C          1.50749        31.82824        -1.76907
C          0.32868        31.13640        -2.06042
C          1.56649        34.10495        -1.68211
C          0.40845        34.87977        -1.91043
C          1.31933        36.58586        -0.46230
C          0.25256        36.08346        -1.25532
C          1.26842        37.91081         0.04768
C          3.66075         3.37107         0.24074
C          2.44525         4.07452         0.32895
C          3.61318         6.23952         0.07938
C          2.42450         5.52230         0.29260
C          3.65226         7.66636         0.16096
C          2.41619         8.37718         0.38905
C          3.63853        10.53730         0.45303
C          2.44652         9.80680         0.57470
C          3.64087        11.98802         0.47496
C          2.43373        12.72013         0.55025
C          3.65157        14.83445         0.14979
C          2.41927        14.12844         0.31837
C          3.64483        16.25611        -0.00491
C          2.40102        16.94796         0.06724
C          3.57585        19.18656        -0.23949
C          2.38992        18.41383         0.20416
C          3.56645        20.64785         0.00424
C          2.29140        21.31977         0.06711
C          3.43277        23.45028        -0.00557
C          2.23829        22.74641         0.02366
C          3.43355        24.91182        -0.21496
C          2.16676        25.64631        -0.02784
C          3.50274        27.85805        -0.00430
C          2.22781        27.11451         0.07180
C          3.53351        29.24535        -0.05784
C          2.34957        29.97991        -0.47978
C          3.66209        32.14532        -0.47095
C          2.49769        31.34510        -0.88694
C          3.68806        33.56954        -0.39947
C          2.56519        34.44909        -0.75947
C          3.61836        36.38726         0.37920
C          2.48579        35.78749        -0.24438
C          3.56998        37.73027         0.78879
C          2.37432        38.46920         0.65840
C          6.11457         3.37680         0.00667
C          4.88489         4.03473        -0.00574
C          6.14006         6.24845        -0.36578
C          4.82851         5.48845        -0.27433
C          6.13510         7.68667        -0.03384
C          4.88242         8.37465         0.12862
C          6.09595        10.50092         0.33350
C          4.88952         9.81879         0.27489
C          6.11679        11.96435         0.46296
C          4.86478        12.71624         0.35591
C          6.13869        14.83908        -0.01795
C          4.89080        14.12022         0.20638
C          6.12306        16.28453        -0.16531
C          4.89240        16.96083        -0.14391
C          6.14281        19.15520        -0.31310
C          4.88667        18.41437        -0.37678
C          6.05716        20.65570        -0.50508
C          4.78077        21.35742         0.05494
C          5.79676        23.62102         0.47697
C          4.67103        22.77752         0.16240
C          5.96037        24.92741         0.13164
C          4.73037        25.65743        -0.23979
C          6.07084        27.78636         0.30539
C          4.73986        27.08418         0.17941
C          6.01005        29.25190         0.18866
C          4.80086        29.95657         0.03616
C          6.04086        32.06617         0.23719
C          4.82488        31.39783        -0.04825
C          6.06818        33.49969         0.35969
C          4.85369        34.23356         0.13836
C          6.04893        36.29334         0.80188
C          4.84728        35.62198         0.45856
C          6.06933        37.70122         1.09304
C          4.77266        38.41266         1.38814
C          8.58953         3.39340         0.07582
C          7.36268         4.07236        -0.09656
C          8.62197         6.18014        -0.26917
C          7.39029         5.48998        -0.22158
C          8.60655         7.63660        -0.11151
C          7.36121         8.32562         0.11832
C          8.61687        10.49399         0.14138
C          7.38159         9.75787         0.59607
C          8.57372        11.90437        -0.29673
C          7.40322        12.72386         0.11386
C          8.53217        14.86039        -0.70917
C          7.32644        14.14573        -0.22848
C          8.58739        16.32516        -0.53805
C          7.36546        17.01031        -0.33975
C          8.61790        19.12050        -0.67276
C          7.36238        18.45567        -0.39381
C          8.59027        20.57975        -0.86895
C          7.42420        21.27036        -0.27693
C          8.76813        23.35138        -0.03634
C          7.66438        22.49585         0.26861
C          8.61663        24.83137        -0.12174
C          7.28613        25.59503        -0.05311
C          8.55439        27.74759        -0.12949
C          7.35105        27.06630         0.04987
C          8.47845        29.21542        -0.08667
C          7.25849        29.92294         0.16056
C          8.51278        32.00606         0.49690
C          7.27307        31.33790         0.30324
C          8.50073        33.38062         1.08063
C          7.26304        34.16287         0.70114
C          8.50619        36.28078         1.02503
C          7.28512        35.57556         0.83472
C          8.52414        37.69876         1.05923
C          7.26525        38.38048         1.16768
C         11.00610         3.22594         0.23038
C          9.84549         4.02619        -0.08574
C         11.01543         6.22653        -0.80181
C          9.83431         5.44200        -0.39874
C         11.04737         7.72215        -0.50849
C          9.80638         8.36381        -0.05555
C         11.07327        10.55574         0.01861
C          9.79360         9.80350         0.01153
C         11.12354        11.97026        -0.35018
C          9.84959        12.61757        -0.69205
C         11.11662        14.84169        -0.74735
C          9.84435        14.10528        -0.87604
C         11.06501        16.24647        -0.85021
C          9.83550        16.98791        -0.73738
C         11.09407        19.17208        -0.91610
C          9.84076        18.43702        -0.79324
C         11.16693        20.56141        -0.79965
C          9.92273        21.33304        -0.85897
C         11.17287        23.46276        -0.34932
C          9.94695        22.75160        -0.45536
C         11.12443        24.86823         0.01927
C          9.85617        25.60891         0.00864
C         11.11860        27.67458         0.14239
C          9.83595        27.00632        -0.08474
C         11.37862        28.97482        -0.19210
C          9.57092        30.05016        -0.35275
C         11.03537        31.97861         0.38749
C          9.71767        31.35973         0.18225
C         11.00624        33.42950         0.64360
C          9.79864        34.10133         0.83731
C         11.05982        36.33524         0.95302
C          9.77186        35.54035         1.13103
C         10.98173        37.78954         0.72456
C          9.73915        38.42714         0.91849
C         13.54879         3.28495         0.44858
C         12.33618         3.53363        -0.16475
C         13.51841         6.25020        -0.60760
C         12.34858         5.62677        -0.91288
C         13.55640         7.68543        -0.43074
C         12.35995         8.36548        -0.29920
C         13.61692        10.54801        -0.21077
C         12.37792         9.79902         0.00656
C         13.57864        11.95977        -0.19005
C         12.32274        12.67663        -0.32995
C         13.58306        14.79904        -0.46450
C         12.34575        14.12055        -0.54579
C         13.65427        16.21743        -0.87027
C         12.33432        16.94964        -1.12649
C         13.68193        19.17883        -0.93833
C         12.35194        18.44500        -1.16039
C         13.63506        20.60689        -0.56743
C         12.40528        21.28833        -0.60588
C         13.61907        23.40487        -0.18643
C         12.39086        22.72204        -0.38906
C         13.57780        24.87280        -0.03452
C         12.30516        25.53241         0.29009
C         13.54549        27.69890         0.93990
C         12.20152        26.93183         0.88314
C         13.58691        29.18045         0.76094
C         12.41823        29.82564         0.34462
C         13.51126        31.99452         0.74442
C         12.25191        31.27095         0.42428
C         13.52030        33.49530         0.66745
C         12.23061        34.19214         0.55788
C         13.44503        36.31965         0.24593
C         12.25417        35.59112         0.53895
C         13.40292        37.75937         0.19447
C         12.16640        38.45538         0.38012
C         16.07192         3.39650         0.18808
C         14.78364         4.17271         0.30954
C         16.04515         6.19883        -0.66547
C         14.76241         5.43023        -0.59217
C         16.05388         7.68503        -0.50849
C         14.83873         8.38244        -0.39625
C         16.05957        10.53063        -0.18731
C         14.83228         9.81826        -0.28901
C         16.01505        11.94271        -0.01679
C         14.81063        12.67481        -0.09385
C         16.00721        14.86276        -0.03706
C         14.80045        14.12410        -0.14857
C         16.06200        16.27518        -0.21541
C         14.88200        16.99989        -0.57070
C         16.10340        19.12599        -0.29722
C         14.89891        18.40291        -0.59899
C         16.09430        20.57064        -0.24339
C         14.86357        21.28999        -0.30794
C         16.09760        23.41405         0.08335
C         14.85055        22.71528        -0.14326
C         16.12365        24.81993         0.28007
C         14.87467        25.59202         0.20038
C         16.13941        27.73276         0.68243
C         14.84926        26.96453         0.79895
C         16.14585        29.22386         0.75886
C         14.83324        29.92438         0.78159
C         16.08119        32.10956         0.75115
C         14.80712        31.28871         0.62913
C         15.93777        33.49446         0.14342
C         14.75386        34.19213         0.23573
C         15.83814        36.36298        -0.26896
C         14.67356        35.62665        -0.00004
C         15.82878        37.79855        -0.23867
C         14.59588        38.47004        -0.03775
C         18.53408         3.36158         0.18049
C         17.27232         4.02468        -0.03311
C         18.60346         6.21736        -0.25076
C         17.32544         5.44520        -0.45702
C         18.54410         7.68898        -0.14520
C         17.30065         8.38783        -0.30162
C         18.53335        10.52157         0.05767
C         17.29554         9.80688        -0.13567
C         18.53509        11.93673         0.20231
C         17.25317        12.63750         0.33912
C         18.52794        14.85494         0.24878
C         17.23574        14.16112         0.36075
C         18.51100        16.26901         0.19122
C         17.30201        16.98364        -0.01223
C         18.56164        19.14110         0.05005
C         17.31004        18.41831        -0.06519
C         18.57241        20.55921        -0.01094
C         17.32076        21.28756        -0.06323
C         18.59716        23.41681         0.44673
C         17.31690        22.68853         0.09483
C         18.57494        24.89345         0.12212
C         17.35279        25.54670         0.23509
C         18.54438        27.79610        -0.18812
C         17.28195        27.01442         0.04192
C         18.54831        29.26648         0.00546
C         17.34355        29.97603         0.28498
C         18.50201        32.09573        -0.07543
C         17.31379        31.37026         0.26131
C         18.45643        33.50778        -0.28435
C         17.13107        34.14522        -0.40786
C         18.34977        36.40640        -0.58338
C         17.08131        35.66793        -0.60831
C         18.29592        37.83115        -0.52123
C         17.04400        38.50055        -0.40549
C         19.70692         4.06771         0.35563
C         20.91313         6.23263         0.60532
C         19.76586         5.48681         0.27841
C         20.91738         7.61600         0.49432
C         19.74649         8.36725         0.15549
C         20.96521        10.55566         0.29617
C         19.76376         9.81244         0.16038
C         20.96212        11.93443         0.31355
C         19.74376        12.67079         0.27358
C         20.96283        14.85723         0.02656
C         19.73554        14.11894         0.24934
C         20.99474        16.20825         0.07788
C         19.78982        16.98019         0.55269
C         20.99639        19.15219         0.19627
C         19.79124        18.44521         0.20354
C         21.01654        20.53606         0.04370
C         19.81570        21.26559        -0.01701
C         20.96941        23.45361        -0.33803
C         19.82891        22.71129        -0.04403
C         20.97918        24.85702        -0.33760
C         19.79993        25.61588        -0.13228
C         20.99698        27.82018        -0.27180
C         19.81312        27.04870        -0.20496
C         20.97311        29.20476        -0.30069
C         19.76295        29.96157        -0.16834
C         20.91033        32.17123        -0.46539
C         19.74274        31.40395        -0.21935
C         20.85835        33.54528        -0.58504
C         19.62628        34.25152        -0.52377
C         20.76811        36.48928        -0.67693
C         19.58524        35.71968        -0.62828
C         20.72237        37.88805        -0.66858
C         19.51108        38.56140        -0.57868
O          4.03440        18.80445        -1.57870
O          7.86633        25.16942        -1.35689
O         14.28487        25.59489        -1.15318
O         10.59353        35.93222         2.28641
O         15.43293         5.54515        -1.86597
O         13.13054        18.95394        -2.28062
O          5.36344        27.25869         1.49988
O          9.04316        14.48002        -2.03819
O          4.09034        25.33486        -1.50471
O         14.27275        27.15951         2.11543
O         11.76379        10.21428         1.29077
O         12.39843         4.30686        -1.34118
O         17.60536        27.43503        -1.31425
O          1.31788        11.28680         2.20387
O         16.93107        34.73379        -1.73700
O          1.39299        27.67851         1.13987
O         16.47984        28.40053         1.93480
O         18.22217         5.68178        -1.58535
O          6.79039        23.00294         1.22564
O         13.54841        32.80874         1.99953
O         10.58676        29.57047        -1.17829
O          1.80309        18.87226         1.44785
O          1.74150        32.99271        -2.51495
O          7.04060        12.45201         1.51835
O         10.82006         7.20075        -1.88340
O         13.10437        16.38416        -2.22482
O          9.15614        21.09606        -2.10113
O          5.38249         5.89088        -1.57596
O          8.99969        11.97187        -1.70022
O         17.12069        13.38749         1.60758
O          8.41652        33.22783         2.54730
H          9.30564        32.97436         2.87538
O          4.82780        39.78798         0.99018
H          4.89882        39.82072         0.01443
O          7.48347         9.69609         2.07042
H          7.43545        10.63000         2.38481
O         18.67801        23.34312         1.93132
H         19.52264        23.76669         2.19563
O          0.53004        23.35175         1.57365
H          0.50601        22.39668         1.79796
O         19.85128        16.95501         2.03095
H         19.76615        16.01643         2.30566
O         14.87138         4.82463         1.64155
H         14.92116         4.11804         2.32025
O         11.75354        26.76482         2.25463
H         12.55929        26.63226         2.80580
O         16.27860        32.31580         2.18560
H         15.39734        32.57951         2.55108
O          5.85258        20.84465        -1.94588
H          5.15449        20.20092        -2.22510
H          1.23062         2.27798         0.55001
H         -0.91237         3.51965         0.78177
H         -0.96677         5.97630         0.73506
H         -0.99313         7.87063         0.56620
H         -0.99750        10.25312         1.06699
H         -1.00809        12.27608         1.01904
H         -1.01487        14.61107         0.35931
H         -1.00965        16.42200        -0.07048
H         -1.11826        18.82753        -0.16603
H         -0.92517        20.73600        -0.99768
H         -1.04628        23.18194        -0.97669
H         -1.18058        25.17261        -0.46191
H         -1.16057        27.55668        -0.89820
H         -0.81985        29.35002        -1.69503
H         -0.40433        31.57712        -2.74763
H         -0.34628        34.51510        -2.61928
H         -0.64466        36.69871        -1.41116
H          0.35234        38.50193        -0.09440
H          3.65885         2.27826         0.36996
H          2.35312        39.50953         1.01181
H          6.13527         2.28913         0.17280
H          4.64319        38.42008         2.50916
H          8.56865         2.31471         0.29154
H          7.25641        39.46903         1.32604
H         10.83270         2.34851         0.87279
H          9.68793        39.52463         0.85787
H         13.54834         2.66219         1.35891
H         12.15709        39.54936         0.26251
H         16.06911         2.33501         0.48234
H         14.57662        39.56977        -0.04669
H         18.53189         2.27089         0.32268
H         17.03216        39.60035        -0.39005
H         20.62703         3.52410         0.61724
H         21.82059         5.70996         0.94096
H         21.84313         8.15177         0.74120
H         21.92889        10.03342         0.36075
H         21.92096        12.46228         0.39819
H         21.87584        14.30862        -0.24350
H         21.94128        16.73188        -0.11441
H         21.94913        18.62543         0.33823
H         21.98202        21.05937         0.05354
H         21.89910        22.93683        -0.61688
H         21.92038        25.36674        -0.58202
H         21.97334        27.31752        -0.31371
H         21.93038        29.73554        -0.38938
H         21.88243        31.67138        -0.57141
H         21.79391        34.08784        -0.77387
H         21.74987        35.99955        -0.71419
H         21.66156        38.45685        -0.71405
H         19.48402        39.65969        -0.54662
