         424
 CSIRO Nanostructure Databank - Neutral Graphene Oxide Data Set
C          1.66556         2.17879        -2.47770
C          1.61089         3.59199        -2.24152
C          2.82769         1.47885        -2.30240
C          2.73354         4.32378        -1.93850
C          1.54568         6.50743        -2.00564
C          1.50836         7.88556        -1.83184
C          2.70316         5.76216        -1.72020
C          2.62777         8.59099        -1.35488
C          1.47011        10.79106        -1.60495
C          1.44632        12.16448        -1.49988
C          2.60307        10.03632        -1.19659
C          2.54438        12.88012        -0.95963
C          1.37739        15.09029        -1.21481
C          1.34387        16.46886        -1.09618
C          2.50551        14.31212        -0.79881
C          2.39984        17.17696        -0.48110
C          2.44615        18.59119        -0.41881
C          4.02909         2.15125        -1.88616
C          4.09082         3.65936        -1.99539
C          5.13716         1.44778        -1.49004
C          5.10637         4.28427        -1.06596
C          3.85463         6.44475        -1.21875
C          3.80924         7.85870        -1.02880
C          5.02944         5.71006        -0.81925
C          4.95686         8.55336        -0.52475
C          3.71928        10.71612        -0.66154
C          3.69318        12.14962        -0.52297
C          4.91708         9.97787        -0.32551
C          4.81255        12.84353         0.01026
C          3.60889        14.96324        -0.20243
C          3.50209        16.39680         0.08947
C          4.79380        14.25118         0.14769
C          4.79500        17.15171         0.45809
C          3.60861        19.27454        -0.09981
C          4.83388        18.59605         0.17615
C          6.28651         2.11069        -0.92973
C          6.18327         3.53427        -0.64060
C          7.42493         1.39392        -0.60824
C          7.21515         4.14540         0.22153
C          6.10936         6.39884        -0.23689
C          6.11056         7.82203        -0.15221
C          7.21055         5.64617         0.40177
C          7.31585         8.52185         0.22151
C          6.05796        10.64750         0.14076
C          5.95522        12.07222         0.61928
C          7.28993         9.95441         0.29150
C          7.26495        12.82196         0.58932
C          6.01340        14.96793         0.49732
C          6.04594        16.37876         0.49467
C          7.25226        14.23771         0.63927
C          7.27238        17.09474         0.52354
C          6.06502        19.23766         0.13684
C          7.28968        18.52525         0.33587
C          8.59214         2.00677        -0.04651
C          8.49506         3.39486         0.45615
C          9.80140         1.34564        -0.00108
C          9.79299         4.17321         0.64598
C          8.48725         6.37465         0.86568
C          8.51830         7.82455         0.44687
C          9.78552         5.64502         0.55446
C          9.76192         8.51858         0.44889
C          8.50049        10.66617         0.53242
C          8.48100        12.10536         0.65263
C          9.74075         9.96847         0.52777
C          9.70715        12.81304         0.83664
C          8.48242        14.94887         0.81919
C          8.49859        16.39421         0.73327
C          9.68687        14.22178         0.96785
C          9.70805        17.11731         0.76291
C          8.51547        19.20229         0.27679
C          9.74326        18.51847         0.47033
C         11.04247         2.03122         0.24690
C         11.05385         3.45330         0.41598
C         12.25375         1.33476         0.15940
C         12.26108         4.16990         0.40842
C         10.98122         6.34220         0.43554
C         10.97943         7.78924         0.37147
C         12.26086         5.62180         0.42472
C         12.24027         8.51384         0.16078
C         10.94590        10.69025         0.70714
C         10.95364        12.09433         0.89385
C         12.22720        10.00651         0.48435
C         12.19864        12.79008         1.02574
C         10.94700        14.91962         1.26444
C         10.95975        16.45402         1.13623
C         12.22518        14.20952         1.12099
C         12.23442        17.11015         0.84575
C         10.98542        19.19201         0.39340
C         12.22487        18.50657         0.51926
C         13.49404         2.01766         0.22325
C         13.49436         3.45345         0.32625
C         14.71723         1.31912         0.16196
C         14.72521         4.14993         0.38433
C         13.47364         6.29595         0.45087
C         13.58196         7.76683         0.10943
C         14.72371         5.58220         0.51852
C         14.68361         8.44387         0.88842
C         13.44808        10.67150         0.97169
C         13.42308        12.04161         1.17511
C         14.62926         9.83900         1.26837
C         14.65747        12.80938         1.48242
C         13.43653        14.94304         1.07234
C         13.44046        16.38073         0.90549
C         14.68793        14.24575         1.11361
C         14.68008        17.06175         0.70438
C         13.45614        19.17495         0.35637
C         14.68419        18.47828         0.45662
C         15.95342         2.00122         0.22650
C         15.95331         3.43712         0.35227
C         17.18565         1.31318         0.16571
C         17.18261         4.14193         0.42789
C         15.93558         6.26639         0.69543
C         15.91559         7.66226         1.27130
C         17.17696         5.57482         0.59644
C         17.16323         8.46622         0.95831
C         15.97005        10.56051         1.54419
C         15.97600        12.05807         1.56231
C         17.19894         9.83138         1.12956
C         17.19898        12.77106         1.16955
C         15.90500        14.90874         0.94341
C         15.91349        16.34113         0.70475
C         17.16911        14.18084         0.97026
C         17.11714        17.03173         0.48110
C         15.91589        19.15554         0.29278
C         17.13944        18.45403         0.31200
C         18.41417         2.00635         0.22384
C         18.41028         3.43945         0.35438
C         19.65422         1.32025         0.16833
C         19.65003         4.14771         0.43159
C         18.39987         6.28460         0.60136
C         18.35918         7.77136         0.36235
C         19.64088         5.60436         0.51664
C         19.66702         8.47136         0.64417
C         18.41454        10.59433         0.93720
C         18.39571        12.02940         0.98418
C         19.65419         9.90265         0.76453
C         19.62042        12.74995         0.86042
C         18.37993        14.86764         0.75327
C         18.38570        16.27429         0.22458
C         19.61654        14.17412         0.81866
C         19.61838        17.06485         0.54880
C         18.38754        19.13569         0.19513
C         19.61567        18.45146         0.40091
C         20.87316         2.01366         0.25814
C         20.85463         3.43929         0.39002
C         22.12485         1.31618         0.19402
C         22.12999         4.18755         0.67098
C         20.85441         6.33648         0.44046
C         20.86268         7.75061         0.52990
C         22.12696         5.59785         0.07672
C         22.15878         8.48764         0.25476
C         20.88354        10.62227         0.76497
C         20.85988        12.05009         0.84035
C         22.15013         9.93029         0.70415
C         22.06799        12.78352         0.81577
C         20.85299        14.88485         0.73070
C         20.86350        16.36618         1.00369
C         22.06220        14.19081         0.68940
C         22.13852        17.08054         0.60823
C         20.87902        19.17422         0.47335
C         22.08446        18.52802         0.54568
C         23.35555         1.98749         0.19647
C         23.38273         3.42358         0.31825
C         24.59691         1.29170         0.08314
C         24.58105         4.11672         0.29835
C         23.41420         6.30645         0.45621
C         23.42685         7.74493         0.61242
C         24.57455         5.56028         0.48445
C         24.59268         8.42912         0.86674
C         23.32486        10.60247         0.96083
C         23.32042        12.06478         1.07889
C         24.62061         9.89362         1.27926
C         24.63676        12.81753         0.89740
C         23.29748        14.90345         0.19612
C         23.31971        16.39231         0.43723
C         24.60833        14.22741         0.48381
C         24.58353        17.07213         0.21523
C         23.37466        19.31491         0.57913
C         24.61646        18.50974         0.25046
C         25.82105         1.96848         0.04841
C         25.83614         3.42066         0.13108
C         27.06509         1.26730         0.04392
C         27.04494         4.11663         0.05807
C         25.86900         6.20678         0.74331
C         25.86373         7.68621         0.99623
C         27.10648         5.52533         0.27959
C         27.15278         8.43404         0.79213
C         25.85180        10.66219         0.81138
C         25.85766        12.02487         0.63374
C         27.12485         9.92708         0.71409
C         27.04469        12.75372         0.19379
C         25.78028        14.88307         0.14942
C         25.76879        16.33942        -0.00398
C         27.01232        14.13412         0.00941
C         27.01727        17.03400        -0.17413
C         25.80393        19.17887         0.05499
C         27.03520        18.47572        -0.14394
C         28.29251         1.93744        -0.06207
C         28.26725         3.39720        -0.45007
C         29.52814         1.28126         0.03841
C         29.55935         4.13007        -0.19895
C         28.28509         6.24369         0.09989
C         28.22121         7.74623        -0.04876
C         29.53836         5.56818        -0.13805
C         29.55307         8.44171         0.02506
C         28.29892        10.63688         0.17381
C         28.25769        11.99474        -0.02352
C         29.55555         9.89232         0.05484
C         29.53114        12.67754        -0.47832
C         28.19944        14.84965        -0.59765
C         28.22818        16.33019        -0.32460
C         29.51280        14.17355        -0.31356
C         29.46751        17.02132        -0.37332
C         28.24515        19.16102        -0.29564
C         29.47504        18.46521        -0.39681
C         30.76896         1.97892        -0.03252
C         30.76748         3.42941        -0.17203
C         31.99117         1.30936         0.08795
C         32.02006         4.12995        -0.21185
C         30.73162         6.30284        -0.22160
C         30.73112         7.72703        -0.12792
C         32.03862         5.60962        -0.53071
C         32.00915         8.49048        -0.42037
C         30.74321        10.58230         0.06405
C         30.72388        12.06749         0.26249
C         32.02815         9.84557         0.27090
C         32.01197        12.76219        -0.09555
C         30.70274        14.86665        -0.28799
C         30.70826        16.31579        -0.37598
C         31.98183        14.15366        -0.23923
C         31.93748        17.01650        -0.47185
C         30.69945        19.14814        -0.55025
C         31.92342        18.45428        -0.62238
C         33.23324         2.00549         0.06727
C         33.22267         3.44893        -0.08052
C         34.45361         1.32957         0.18428
C         34.49373         4.16082        -0.15442
C         33.23032         6.29327         0.15699
C         33.29496         7.75973        -0.13752
C         34.52193         5.57653        -0.14977
C         34.48664         8.45923        -0.19298
C         33.27366        10.62214        -0.09295
C         33.23943        12.04667        -0.14328
C         34.47515         9.92563        -0.23110
C         34.46651        12.77452        -0.25026
C         33.20922        14.88153        -0.31086
C         33.18493        16.32458        -0.44387
C         34.43079        14.19134        -0.25639
C         34.39975        17.03256        -0.63422
C         33.14406        19.13493        -0.85999
C         34.36084        18.44535        -0.90639
C         35.70006         2.01894         0.08980
C         35.69388         3.42653        -0.16428
C         36.92991         1.36988         0.32337
C         36.97373         4.10149        -0.55168
C         35.75761         6.29886        -0.26192
C         35.75465         7.76442        -0.26564
C         36.94829         5.59851        -0.41985
C         36.94703         8.48651        -0.43564
C         35.71281        10.64826        -0.33465
C         35.70744        12.06403        -0.31872
C         36.94905         9.93299        -0.44854
C         36.95384        12.80188        -0.39643
C         35.69917        14.96028        -0.01111
C         35.66232        16.36294        -0.57957
C         36.94812        14.19162        -0.35507
C         36.84545        17.04527        -0.87768
C         35.58695        19.11356        -1.22162
C         36.78504        18.43945        -1.24677
C         38.14847         2.10711         0.42251
C         38.18970         3.47622         0.07827
C         39.33748         1.48110         0.91942
C         39.38068         4.23411         0.24118
C         38.24126         6.29513        -0.72962
C         38.21247         7.78322        -0.49457
C         39.43943         5.62244        -0.09295
C         39.41312         8.46115        -0.51308
C         38.16650        10.65796        -0.58486
C         38.19081        12.06095        -0.54152
C         39.41760         9.89919        -0.97132
C         39.44515        12.78962        -0.68131
C         38.22887        14.97031        -0.26115
C         38.13688        16.37160        -0.83054
C         39.45215        14.20725        -0.69787
C         39.29774        17.05962        -1.07386
C         38.03120        19.17956        -1.68647
C         39.29624        18.50761        -1.22406
C         40.49584         2.20023         1.08364
C         40.54865         3.58834         0.75906
C         41.73678         4.34500         0.92452
C         40.62995         6.34423         0.05923
C         40.66577         7.76913        -0.29421
C         41.77684         5.68179         0.58642
C         41.83972         8.50320        -0.29413
C         40.69802        10.63719        -0.69616
C         40.67996        12.08757        -0.80200
C         41.84578         9.91995        -0.45998
C         41.86774        12.81647        -1.00721
C         40.64377        14.91060        -0.94044
C         40.65422        16.40251        -1.17347
C         41.84237        14.20103        -1.12290
C         41.67546        17.17936        -0.36865
C         40.41139        19.20944        -0.85777
C         41.56853        18.52600        -0.31058
O          3.83129        16.75451         1.47677
O          6.68057         4.74903         1.44336
O         25.96293         6.74967         2.12226
O         12.23301         9.50635        -0.93092
O         15.22079        10.02874         2.65836
O          9.02727         3.61199         1.79180
O         10.89728        15.78274         2.44465
O         15.31388        12.57202         2.76552
O         24.06315        12.60614         2.23673
O         27.54171         9.17487         1.96874
O         22.12223         5.50617        -1.37536
H         22.22488         6.42604        -1.71408
O         22.20464         8.54652        -1.22936
H         21.43503         9.08199        -1.52184
O          5.61140        11.95164         2.05602
H          5.52451        12.86229         2.41180
O         28.01398        14.71462        -2.07360
H         28.65346        15.32820        -2.49655
O         29.70244        12.42138        -1.89790
H         29.00889        12.95000        -2.35860
O         32.00236         8.71519        -1.86130
H         32.13790         7.83216        -2.27985
O         38.43262         6.17417        -2.19136
H         38.21233         5.23384        -2.41980
O         18.43203        16.09214        -1.26266
H         18.35817        16.98827        -1.65725
O         39.35746         9.79631        -2.44757
H         38.78887         9.02592        -2.66759
O         14.02994         7.76158        -1.28754
H         13.64252         8.56971        -1.70298
O         35.74005        15.15094         1.45670
H         36.66283        15.44546         1.66706
O         24.72139         9.84929         2.73552
H         25.61601         9.49592         2.95080
O         32.98483         6.16503         1.59386
H         33.51009         6.85012         2.05825
O         20.83727        16.45177         2.48371
H         21.61690        15.96211         2.82366
O         37.98402        20.55047        -1.28488
H         37.95141        20.58087        -0.30689
O         27.72901         7.96410        -1.42517
H         28.38461         7.57529        -2.04271
O         28.12646         3.39743        -1.92938
H         28.74533         2.71948        -2.27576
O          8.43691         6.41821         2.32331
H          8.14658         5.51758         2.60849
O         32.11206         9.60021         1.70962
H         31.74874        10.39395         2.16332
O         30.54559        12.27216         1.70138
H         30.56775        13.23888         1.87020
O         38.44456        15.20315         1.20349
H         38.65201        14.32993         1.60207
O         18.19727         7.90175        -1.11592
H         18.83367         7.28137        -1.53245
O         23.29148        20.47362        -0.26141
H         23.17876        20.17309        -1.18617
O         23.16397        14.77549        -1.27947
H         23.93216        15.23607        -1.68187
O         15.87261         7.43242         2.72555
H         15.72265         8.31796         3.14240
O         37.11147         3.82271        -2.03076
H         36.24447         4.04086        -2.43775
O         22.16622         4.38240         2.12066
H         22.19205         3.49903         2.54424
O         41.07319        16.55283        -2.57492
H         41.13801        17.51548        -2.75348
O          4.59497         3.93596        -3.35584
H          3.95434         3.53982        -3.98429
O         32.26162         5.76187        -1.97584
H         31.57202         5.23887        -2.43737
H          0.73884         1.65463        -2.74921
H          0.62297         4.07209        -2.27795
H          2.84186         0.38326        -2.40001
H          0.64913         6.00563        -2.39335
H          0.57821         8.41278        -2.07906
H          0.59266        10.28613        -2.02840
H          0.54921        12.70026        -1.83606
H          0.52022        14.59073        -1.68435
H          0.48110        17.02828        -1.48640
H          1.55794        19.15903        -0.73322
H          5.13412         0.34743        -1.52655
H          3.62525        20.37199        -0.16990
H          7.47392         0.32414        -0.86147
H          6.10957        20.31832        -0.06506
H          9.84908         0.29309        -0.31920
H          8.52708        20.28528         0.08488
H         12.24446         0.24208         0.03428
H         10.99455        20.27186         0.18512
H         14.70825         0.22332         0.06530
H         13.46331        20.25305         0.13935
H         17.18786         0.21685         0.07339
H         15.91604        20.24453         0.13777
H         19.65898         0.22522         0.06215
H         18.39024        20.22855         0.07293
H         22.10962         0.22045         0.09473
H         20.86052        20.27194         0.40034
H         24.58544         0.19258         0.02836
H         23.50171        19.70602         1.62897
H         27.05712         0.17401         0.17419
H         25.81593        20.27840         0.08219
H         29.54493         0.19657         0.22641
H         28.24715        20.26097        -0.31198
H         31.99749         0.21499         0.20351
H         30.69770        20.24619        -0.61807
H         34.45687         0.24053         0.34159
H         33.12883        20.22195        -1.02831
H         36.93541         0.29704         0.56639
H         35.56624        20.18660        -1.46350
H         39.30555         0.41256         1.17747
H         38.03956        19.18348        -2.81538
H         41.40227         1.71136         1.46989
H         42.63323         3.85197         1.32800
H         42.71189         6.23956         0.73221
H         42.80288         8.01109        -0.10265
H         42.80625        10.43995        -0.33131
H         42.82113        12.28571        -1.13335
H         42.76621        14.74995        -1.35160
H         42.55844        16.66190         0.03427
H         40.39912        20.30840        -0.88725
H         42.34774        19.13025         0.17695
