         324
 CSIRO Nanostructure Databank - Neutral Graphene Oxide Data Set
C          1.50337         3.90599        -2.83678
C          0.20030         4.21655        -2.47396
C          1.06353         5.69083        -0.75722
C         -0.02626         5.06836        -1.38757
C          1.03869         7.67899         0.62009
C          0.03089         8.36969         1.29829
C          1.11806        10.52479         1.01344
C          0.05649         9.76079         1.49518
C          1.12780        11.96136         1.05471
C         -0.02767        12.74837         1.22042
C          1.14439        14.91099         0.89985
C         -0.02837        14.14456         1.10901
C          1.17040        16.29428         0.61482
C         -0.05494        17.03250         0.37354
C          1.16291        19.17870         0.53409
C         -0.07317        18.37944         0.22968
C          1.17932        20.62888         0.07253
C          0.04150        21.41409        -0.04634
C          1.28807        23.54268        -0.04451
C          0.10361        22.82557        -0.18681
C          1.25967        25.12764         0.00651
C          0.05075        25.75246        -0.66210
C          1.29799        27.65875        -1.64393
C          0.08255        26.91526        -1.36452
C          1.33757        28.96597        -2.18477
C          3.90806         3.94210        -2.38746
C          2.60874         4.48736        -2.16147
C          3.54671         6.18675        -0.51328
C          2.38805         5.49799        -1.17303
C          3.45505         7.66156        -0.17520
C          2.29087         8.30626         0.24789
C          3.58519        10.53766         0.39880
C          2.26168         9.80007         0.38617
C          3.63426        11.84233         1.07451
C          2.41407        12.67303         0.85307
C          3.66655        14.97687         1.05078
C          2.43119        14.17601         0.84891
C          3.70329        16.30509         0.57637
C          2.42698        17.00589         0.40017
C          3.65912        19.09444        -0.06960
C          2.40861        18.37969         0.19629
C          3.67442        20.57399         0.00090
C          2.43872        21.29857         0.04457
C          3.75804        23.26459         0.36489
C          2.46495        22.72504         0.14055
C          3.75134        25.38541        -0.13015
C          2.50876        25.82836        -0.53133
C          3.76698        27.72400        -1.49441
C          2.52566        27.04084        -1.28810
C          3.78635        29.08661        -1.94223
C          2.53297        29.66809        -2.30756
C          6.27720         3.74597        -1.78413
C          5.02207         4.35978        -1.65376
C          6.15623         6.26242        -0.52425
C          4.88918         5.53493        -0.74855
C          6.07752         7.71588        -0.37773
C          4.73150         8.44015        -0.29793
C          6.02910        10.41014         0.61440
C          4.83498         9.78502         0.30843
C          6.11865        11.57211         1.62361
C          4.75989        12.22281         1.71574
C          6.12910        14.96942         1.31506
C          4.84909        14.44977         1.57461
C          6.18537        16.31506         0.89981
C          4.95518        16.96847         0.58349
C          6.13867        19.19644         0.63224
C          4.97570        18.36738         0.14879
C          6.19681        20.51136        -0.12558
C          4.89408        21.23754        -0.15764
C          6.14751        23.35565        -0.60754
C          4.94080        22.64757        -0.00270
C          6.15407        24.89582        -0.73514
C          4.95857        25.74402        -0.75590
C          6.24634        27.78983        -1.19735
C          5.00401        27.06948        -1.24125
C          6.23789        29.19551        -1.51730
C          5.01601        29.79045        -1.95149
C          8.65212         3.59987        -1.12649
C          7.44573         4.26422        -1.13788
C          8.61274         6.30248        -0.24042
C          7.37241         5.62764        -0.60128
C          8.53974         7.69080         0.24983
C          7.28891         8.42518         0.02211
C          8.52984        10.56428         0.19782
C          7.27360         9.74903         0.35077
C          8.24731        12.00262         0.50820
C          7.24404        12.60936         1.18277
C          8.66419        14.90374         1.52591
C          7.35070        14.11384         1.52547
C          8.67937        16.39649         1.33503
C          7.46500        17.04414         0.95163
C          8.60837        19.19388         0.95383
C          7.44835        18.43971         0.71740
C          8.54084        20.68117         0.85612
C          7.46374        21.30228         0.02215
C          8.56177        23.53663         0.22990
C          7.44954        22.78543        -0.07019
C          8.52606        25.02286         0.17188
C          7.42983        25.69417        -0.56963
C          8.61378        27.88786        -0.51838
C          7.39652        27.16946        -0.67073
C          8.63884        29.27930        -0.90703
C          7.45168        29.90524        -1.37825
C         11.13312         3.55867        -0.71686
C          9.80532         4.12058        -0.31414
C         11.03813         6.32076         0.15736
C          9.81167         5.62948        -0.19051
C         11.05650         7.70728         0.47091
C          9.80288         8.46138         0.61654
C         11.07785        10.61472         0.96866
C          9.84953         9.95073         0.71057
C         11.18773        12.05447         1.17591
C         10.19047        13.02643         0.85178
C         11.16499        14.98777         1.98034
C         10.00374        14.25659         1.45812
C         11.17385        16.45924         1.83086
C          9.88292        17.14568         1.58053
C         10.79092        19.50349         1.94163
C          9.77043        18.58274         1.48339
C         10.97869        20.79885         1.51732
C          9.76371        21.52237         1.11536
C         10.97699        23.65980         0.82763
C          9.80375        22.93533         0.68658
C         11.03416        25.08536         0.56432
C          9.77420        25.83197         0.39025
C         11.03986        27.90702        -0.12602
C          9.80891        27.23131        -0.10275
C         11.07066        29.30675        -0.48562
C          9.87066        29.96755        -0.83693
C         13.57044         3.57078        -0.53605
C         12.28983         4.21958        -0.40446
C         13.42541         6.16862         0.64090
C         12.26271         5.58726         0.10736
C         13.29231         7.45743         1.20983
C         12.24094         8.35749         0.90482
C         13.58312        10.45788         1.18133
C         12.32645         9.81138         1.11052
C         13.69699        11.90096         1.52199
C         12.40342        12.67131         1.75012
C         13.71094        14.88970         1.63137
C         12.46687        14.17938         1.94299
C         13.70177        16.28138         1.60797
C         12.46673        17.02710         1.83086
C         13.69072        19.19824         1.55191
C         12.67606        18.42884         2.06456
C         13.69094        20.73895         1.67622
C         12.28746        21.51072         1.65907
C         13.47403        23.65589         0.78359
C         12.24049        22.97228         1.24454
C         13.46114        24.99030         0.45896
C         12.23861        25.77211         0.45329
C         13.48114        27.89332         0.03730
C         12.27058        27.20305         0.15147
C         13.52473        29.30266        -0.27316
C         12.31115        29.98654        -0.50304
C         15.98351         3.46053        -0.29397
C         14.73309         4.12866        -0.05984
C         16.09236         6.21637         0.61253
C         14.72915         5.44964         0.61461
C         16.13524         7.69649         0.67289
C         15.09971         8.45318         1.24752
C         16.03442        10.56610         0.60423
C         14.87582         9.82557         0.98781
C         16.05655        12.01817         0.75224
C         14.93287        12.66474         1.22656
C         16.16307        14.88743         1.05440
C         15.01715        14.11620         1.67231
C         16.11400        16.29906         1.04159
C         14.91565        17.03502         1.29999
C         15.97035        19.19479         0.60819
C         14.87071        18.47015         1.12529
C         15.88330        20.58098         0.28611
C         14.61134        21.31059         0.57532
C         15.77066        23.44497        -0.26576
C         14.59360        22.80476         0.33530
C         15.88187        24.91914        -0.39082
C         14.75326        25.68651         0.23003
C         16.01385        27.87032        -0.22357
C         14.76405        27.17906         0.14227
C         16.01924        29.29491        -0.27594
C         14.76970        29.97861        -0.34167
C         18.36275         3.46609        -0.86126
C         17.18655         4.13097        -0.31655
C         18.34770         6.28645        -0.45830
C         17.24808         5.55552        -0.04477
C         18.37597         7.72904        -0.38849
C         17.22925         8.42804         0.15813
C         18.46381        10.56890         0.09431
C         17.20109         9.84704         0.25971
C         18.45307        12.03776         0.15477
C         17.31923        12.73830         0.53623
C         18.53635        14.89724         0.33073
C         17.34715        14.18720         0.67133
C         18.53530        16.30686         0.21583
C         17.35386        17.03451         0.71763
C         18.32908        19.12437        -0.42106
C         17.26541        18.52123         0.43444
C         18.22306        20.61105        -0.75802
C         16.91688        21.25022        -0.38910
C         18.62050        23.65718        -0.97451
C         16.70764        22.59610        -0.81465
C         18.51441        24.98959        -0.54417
C         17.19932        25.68453        -0.56199
C         18.44179        27.80537        -0.07082
C         17.22188        27.13746        -0.23183
C         18.47427        29.23768        -0.15061
C         17.26757        29.95916        -0.31137
C         19.48418         4.14499        -1.16797
C         20.44809         6.38134        -1.81440
C         19.65091         5.59517        -0.80859
C         20.38928         7.73196        -1.80082
C         19.45129         8.42899        -0.94433
C         20.67522        10.69671        -1.18890
C         19.63948         9.84284        -0.57438
C         20.78538        11.99119        -0.83856
C         19.77790        12.67081         0.01115
C         20.94648        14.94861        -0.41437
C         19.81750        14.19526         0.13615
C         20.86770        16.29098        -0.57673
C         19.67615        17.02177        -0.22788
C         20.74912        19.19195        -0.81975
C         19.64098        18.44720        -0.43731
C         20.68958        20.59896        -0.94411
C         19.52467        21.34049        -0.83030
C         20.77203        23.39270         0.02424
C         19.66303        22.79129        -0.60967
C         20.78593        24.76871         0.26665
C         19.66376        25.58155         0.01882
C         20.94079        27.77252         0.00768
C         19.67387        27.05351         0.38760
C         20.93739        29.13462        -0.17122
C         19.74119        29.88725        -0.17388
O         20.24215        13.30764         1.23724
O         16.30270        25.42691        -1.69577
O          4.48517        18.58788        -1.19409
O          8.96172         7.82433         1.66324
O          8.77887        25.63975         1.47120
O          3.83559        24.52015         0.95853
O          4.75026        13.38570         2.47076
O         17.60246        23.11034        -1.75921
O          7.14451        20.57432        -1.21825
O         15.05727        26.45836         1.43899
O         12.27107        22.56569         2.67718
O         11.71306        19.02886         2.86642
O         17.77255        18.04019         1.72105
O          0.73674         6.36136         0.42471
O         19.56956        10.00917         0.88357
O          8.67528        21.34299         2.14925
O          2.77159        10.48353        -0.81009
O         15.57918         5.52476         1.78915
O          7.99507        14.45480         2.78578
O         13.95207        21.78931        -0.62423
O          5.42037         8.29937        -1.58183
O         14.23811         7.84147         2.16158
O         13.10635        12.06470         2.87834
O         17.96759        19.56607        -1.76496
O          2.50934        13.40696        -0.42591
O          4.15147         5.32841         0.52577
O          6.43273        10.99514         2.83737
O          9.22564        12.78199        -0.13479
O         11.81130        14.53488         3.21209
O          7.06951        25.15158        -1.87412
O          5.80299        19.53153         2.01402
H          6.58594        19.94263         2.44170
O          9.57523         3.61632         1.05911
H          8.79464         4.09099         1.41822
O          1.15677        25.44090         1.42212
H          1.99275        25.13894         1.84299
O          6.03732        22.88495        -1.98345
H          6.68984        23.38857        -2.52111
O          8.77896        10.51734        -1.25585
H          9.22971        11.36353        -1.48523
O         19.61541        27.09228         1.86162
H         19.62813        28.03589         2.12979
O         20.44849         5.61298         0.42945
H         19.89516         5.22529         1.14066
O          1.19095        19.31887         2.00730
H          1.15451        18.41617         2.39030
O         15.30612        14.04282         3.11132
H         14.58662        13.50654         3.52099
O         14.32531        21.05532         2.92552
H         13.76205        21.71880         3.39153
H          1.69616         3.16160        -3.62176
H         -0.64741         3.74738        -2.99110
H         -1.04126         5.24754        -1.01113
H         -0.84545         7.79673         1.62829
H         -0.79059        10.24114         2.00374
H         -0.99762        12.24789         1.35790
H         -0.99953        14.65700         1.16717
H         -0.99069        16.46689         0.25622
H         -1.02327        18.89613         0.03203
H         -0.95469        20.94876        -0.02736
H         -0.84744        23.35251        -0.34508
H         -0.93379        25.30421        -0.46147
H         -0.86625        27.33795        -1.73156
H          0.39428        29.45687        -2.46692
H          4.01111         3.11169        -3.10156
H          2.51534        30.70121        -2.68478
H          6.36714         2.83376        -2.39297
H          5.02004        30.85082        -2.24703
H          8.72493         2.58928        -1.55692
H          7.48819        30.97150        -1.64770
H         11.17677         2.52153        -1.08255
H          9.91010        31.03186        -1.11235
H         13.60420         2.57714        -1.00787
H         12.33511        31.05662        -0.75594
H         15.94952         2.41580        -0.63923
H         14.76960        31.06932        -0.48475
H         18.28128         2.39110        -1.08342
H         17.30054        31.05409        -0.40568
H         20.35125         3.62189        -1.59859
H         21.15503         5.85319        -2.47067
H         21.04650         8.32049        -2.45792
H         21.40471        10.24889        -1.87859
H         21.62085        12.58378        -1.23635
H         21.89273        14.42686        -0.60832
H         21.74069        16.83103        -0.96417
H         21.73578        18.72049        -0.91414
H         21.64105        21.13497        -1.07172
H         21.62937        22.78169         0.33936
H         21.67404        25.21224         0.73733
H         21.89285        27.22357         0.02476
H         21.89016        29.66081        -0.33133
H         19.78347        30.97901        -0.28991
