         210
 CSIRO Nanostructure Databank - Neutral Graphene Oxide Data Set
C         30.53817        31.55575         1.31636
C         30.57409        32.78627         1.40796
C         30.60657        36.07357         1.59261
C         30.64278        37.30703         1.45349
C         30.79355        40.46049         1.62161
C         30.75969        41.71366         1.67086
C         32.96144        28.80741         0.40755
C         31.88763        29.29259         0.79962
C         32.95509        31.50072         0.78124
C         31.71541        30.67962         1.22008
C         32.70644        32.94675         0.32205
C         31.74549        33.73089         1.33271
C         32.72333        35.95885         0.35910
C         31.51580        35.15528         0.89396
C         32.81477        37.42908         0.55687
C         31.72055        38.16919         1.05741
C         32.89513        40.30613         0.57036
C         31.76907        39.57747         1.11921
C         32.86955        41.75328         0.52556
C         31.80474        42.50646         1.12714
C         33.00434        44.48261         0.60998
C         32.01166        43.92291         1.12609
C         35.58745        27.49068        -0.90543
C         35.37697        28.82203        -0.46385
C         34.20243        29.42717         0.02055
C         35.35162        31.60600         0.06165
C         34.15785        30.82872         0.22958
C         35.31370        33.02664         0.18567
C         34.01224        33.72378         0.06294
C         35.28620        35.95690         0.21242
C         34.00306        35.22756         0.04932
C         35.27754        37.38012         0.15055
C         34.03517        38.12104         0.26398
C         35.22577        40.14416        -0.53883
C         34.03276        39.53893         0.18019
C         35.27924        41.67314        -0.53920
C         33.99814        42.47102        -0.12081
C         35.33300        44.54934        -0.43050
C         34.17713        43.93758         0.03858
C         35.57297        45.94921        -0.55486
C         37.80384        27.63755        -1.67196
C         36.51136        26.96684        -1.56218
C         37.79760        28.98705        -1.07928
C         36.61865        29.56938        -0.57894
C         37.80978        31.70808        -0.10731
C         36.59217        30.96643        -0.21381
C         37.75422        33.06526         0.28399
C         36.50658        33.77458         0.28218
C         37.71021        35.97721         0.64186
C         36.47301        35.22238         0.35036
C         37.78688        37.39508         0.24297
C         36.52988        38.09906         0.04196
C         37.77421        40.19111        -0.42422
C         36.52540        39.47178        -0.16763
C         37.81036        41.67068        -0.09193
C         36.54828        42.39690        -0.50189
C         37.85271        44.47514        -0.78530
C         36.57694        43.79230        -0.60583
C         37.92077        45.87785        -0.98655
C         36.63995        46.49785        -0.88931
C         40.13006        24.77859        -1.01212
C         39.22249        25.41289        -1.58212
C         40.33008        27.51168        -1.02214
C         39.13978        26.86069        -1.65629
C         40.32568        28.89917        -0.83167
C         39.10030        29.75659        -1.17574
C         40.27646        31.67298        -0.10929
C         39.07454        31.05172        -0.38413
C         40.29852        33.01880         0.49189
C         38.99643        33.74328         0.69834
C         40.28226        35.95767         0.65071
C         39.01442        35.23650         0.83916
C         40.27566        37.33063         0.42086
C         39.02015        38.02347         0.15081
C         40.32495        40.20470        -0.06524
C         39.08718        39.43584        -0.27087
C         40.33454        41.60635        -0.34198
C         39.09722        42.34600        -0.52450
C         40.35024        44.41227        -1.11788
C         39.08291        43.70672        -0.81733
C         40.39741        45.88895        -1.15840
C         39.15127        46.56712        -1.20650
C         40.39370        48.58217        -1.64698
C         39.32777        47.94681        -1.46185
C         42.59901        24.62979        -0.20485
C         41.40820        25.25800        -0.60382
C         42.68078        27.39319        -0.25618
C         41.46680        26.71359        -0.61113
C         42.73007        28.82555        -0.22398
C         41.53033        29.56671        -0.43443
C         42.75432        31.65881         0.06044
C         41.54488        30.98281        -0.22643
C         42.74374        33.09204         0.32217
C         41.56730        33.77433         0.46184
C         42.80201        35.95944         0.62456
C         41.55169        35.20162         0.98386
C         42.76753        37.37359         0.48266
C         41.52080        38.07464         0.38026
C         42.77234        40.21150         0.24305
C         41.52792        39.49536         0.20317
C         42.78234        41.62370         0.02435
C         41.57979        42.28917        -0.33204
C         42.85901        44.47611        -0.48357
C         41.66367        43.67574        -0.80785
C         42.86627        45.88799        -0.79996
C         41.65539        46.57216        -1.22570
C         42.97529        48.56589        -1.53140
C         41.68013        48.00715        -1.52538
C         43.65004        25.28592         0.03670
C         45.12126        27.34940         0.22177
C         43.88807        26.66692         0.04895
C         45.18760        28.78070         0.18063
C         43.96144        29.51663         0.03370
C         45.24641        31.63644         0.26377
C         43.98435        30.93645         0.13061
C         45.27736        33.05373         0.35146
C         44.01950        33.77003         0.77836
C         45.22694        35.96177         0.37621
C         44.01418        35.26106         0.51620
C         45.23976        37.37459         0.43032
C         44.00800        38.08688         0.43883
C         45.23822        40.23876         0.44865
C         44.00691        39.51819         0.38797
C         45.22804        41.67150         0.44735
C         44.00384        42.36296         0.15262
C         45.16102        44.53946         0.47234
C         43.98053        43.79199         0.02017
C         45.18462        46.08803         0.16136
C         44.08171        46.62490        -0.62362
C         43.98451        47.92474        -1.13567
C         47.49354        27.37720         0.39206
C         46.40123        26.76384         0.36922
C         47.68733        28.77538         0.31837
C         46.44190        29.47919         0.24546
C         47.72364        31.62171         0.22525
C         46.47591        30.91602         0.22564
C         47.72421        33.04509         0.21816
C         46.49070        33.74516         0.27119
C         47.71283        35.89678         0.72962
C         46.51490        35.24368         0.04711
C         47.72602        37.40034         0.51284
C         46.49937        38.09907         0.46909
C         47.71199        40.24699         0.60834
C         46.48330        39.52943         0.50753
C         47.70191        41.67926         0.77102
C         46.44530        42.38174         0.67911
C         47.62686        44.52303         0.90999
C         46.43093        43.81970         0.71519
C         47.45186        45.91808         0.71869
C         46.56262        46.57816         0.12701
C         50.21516        28.90896         0.20937
C         48.92336        29.47028         0.25873
C         50.22516        31.60239         0.07742
C         48.97265        30.89988         0.19061
C         50.21227        33.04561         0.06887
C         48.98307        33.77942         0.19670
C         50.20228        35.93218         0.28097
C         48.99567        35.18522         0.33603
C         50.19857        37.37744         0.41009
C         48.95290        38.10481         0.51473
C         50.17935        40.27649         0.62443
C         48.94939        39.54059         0.58516
C         50.17343        41.70640         0.79182
C         48.92075        42.37475         0.96528
C         50.15397        44.48413         1.05926
C         48.84117        43.83594         1.43903
C         51.33381        29.46579         0.08511
C         52.62610        31.70054        -0.11618
C         51.48287        30.86844         0.00359
C         52.55783        32.95022        -0.12340
C         51.43109        33.79959        -0.00786
C         52.55332        36.06661         0.05081
C         51.42727        35.20466         0.07846
C         52.55380        37.30889         0.17424
C         51.40647        38.12800         0.36105
C         52.51601        40.40277         0.49266
C         51.40831        39.54349         0.48689
C         52.57071        41.65941         0.61446
C         51.43163        42.45653         0.76804
C         51.21557        43.85241         0.95250
O         31.62281        35.47623        -0.49686
O         38.49688        39.74429        -1.59799
O         32.69913        31.13105         2.18911
O         38.62473        27.47315        -2.85511
O         38.23726        35.70752         1.99904
O         39.66229        33.07926         1.84253
O         33.93794        34.47158        -1.20696
O         41.15898        43.82230        -2.18179
O         44.81094        45.56947         1.45367
O         34.30064        42.14496        -1.51721
O         46.72548        35.43000        -1.38398
H         45.97552        35.02131        -1.86423
O         48.74463        43.80604         2.87008
H         48.52931        44.70813         3.18760
O         39.26499        30.15911        -2.57549
H         39.16056        29.34306        -3.12167
O         35.05128        39.75290        -1.93882
H         34.46467        40.42723        -2.35425
O         32.02903        32.79465        -0.92402
H         32.16189        33.62715        -1.43988
O         47.54216        35.69196         2.15771
H         48.29911        36.10373         2.62392
O         37.81626        41.68167         1.38243
H         37.89135        42.61334         1.68009
O         32.36119        33.79582         2.60528
H         32.44239        32.87301         2.95181
O         44.00101        33.62885         2.23547
H         43.20719        34.12373         2.56614
O         41.55977        35.05809         2.45133
H         40.78977        34.47581         2.67566
