         424
 CSIRO Nanostructure Databank - Neutral Graphene Oxide Data Set
C          1.27136         1.97923        -0.05928
C          1.23095         3.40092        -0.10605
C          2.45281         1.31030         0.13557
C          2.37499         4.16329         0.05163
C          1.21728         6.30432        -0.54695
C          1.24227         7.65985        -0.82109
C          2.37556         5.62308        -0.09867
C          2.43406         8.40971        -0.70190
C          1.43193        10.37067        -1.84627
C          1.55560        11.64600        -2.39590
C          2.49846         9.80317        -1.13242
C          2.69492        12.40414        -2.13558
C          1.63638        15.56299        -2.47476
C          1.52578        16.82266        -1.93260
C          2.74443        14.74459        -2.14666
C          2.58364        17.32739        -1.12999
C          2.56271        18.68341        -0.70473
C          3.67400         2.03198         0.34159
C          3.63316         3.48899         0.32004
C          4.87220         1.35129         0.55066
C          4.77429         4.21467         0.61012
C          3.54726         6.37205         0.11573
C          3.59216         7.75667        -0.20333
C          4.77417         5.72484         0.72350
C          4.82986         8.50698        -0.08674
C          3.67892        10.57855        -0.90027
C          3.74927        11.95522        -1.29928
C          4.84073         9.93405        -0.35354
C          4.89292        12.78476        -0.94386
C          3.74583        15.11548        -1.24395
C          3.70051        16.49141        -0.80672
C          4.89261        14.24201        -0.89147
C          4.79746        17.09278        -0.13201
C          3.64663        19.23629        -0.05731
C          4.79046        18.44552         0.20570
C          6.09158         2.04163         0.80607
C          6.00831         3.50778         0.97077
C          7.31928         1.39327         0.88911
C          7.33314         4.27649         0.94576
C          6.03478         6.31084         0.05578
C          6.04071         7.82330         0.11841
C          7.32464         5.69599         0.54699
C          7.27115         8.51793         0.17313
C          6.02185        10.67590        -0.22309
C          6.04358        12.08624        -0.46108
C          7.23458        10.00899         0.38710
C          7.28128        12.79072        -0.26830
C          6.04293        14.89674        -0.41654
C          5.99778        16.26508         0.23719
C          7.28893        14.19761        -0.30216
C          7.26343        17.07065         0.07804
C          6.00766        19.07802         0.84408
C          7.28226        18.41029         0.37218
C          8.56990         2.10514         0.91898
C          8.56299         3.50958         0.82011
C          9.81617         1.40305         0.92235
C          9.84834         4.26964         0.90643
C          8.51544         6.38629         0.38400
C          8.50089         7.82766         0.19451
C          9.78631         5.69700         0.41698
C          9.74356         8.53541         0.13345
C          8.53124        10.68850         0.04837
C          8.52610        12.08771        -0.10652
C          9.74461         9.97643         0.05494
C          9.76331        12.80049        -0.16555
C          8.53103        14.91189        -0.23041
C          8.52389        16.41207        -0.41981
C          9.74741        14.23948        -0.20050
C          9.73274        17.04031         0.26680
C          8.49867        19.17717         0.28226
C          9.73549        18.54850         0.16075
C         11.04806         2.07472         0.68079
C         11.03056         3.46984         0.46047
C         12.30042         1.37928         0.58650
C         12.22859         4.14633        -0.01467
C         10.94973         6.38905         0.15207
C         10.96323         7.82628         0.06194
C         12.20583         5.66120        -0.13694
C         12.21512         8.51496        -0.01348
C         10.98136        10.67977        -0.05679
C         10.97968        12.08222        -0.16763
C         12.23352         9.93701        -0.02019
C         12.29407        12.78076        -0.44636
C         11.01460        14.98664        -0.22443
C         11.00488        16.35877        -0.15135
C         12.27699        14.27162        -0.20837
C         12.26431        17.13926        -0.39953
C         10.97001        19.23600         0.18255
C         12.21399        18.57400         0.08558
C         13.52322         2.05146         0.38539
C         13.52949         3.47475         0.12072
C         14.76859         1.37407         0.41650
C         14.70962         4.19535        -0.02639
C         13.48052         6.37560        -0.05639
C         13.46136         7.79392        -0.00604
C         14.70077         5.65583        -0.11611
C         14.69606         8.50221         0.00787
C         13.45808        10.62412         0.07355
C         13.41135        12.10414         0.34262
C         14.69340         9.93078         0.07994
C         14.73050        12.80349         0.17032
C         13.46210        14.94314         0.04695
C         13.49606        16.39462         0.06847
C         14.72540        14.21676         0.19650
C         14.65897        17.08742         0.29417
C         13.42837        19.24263         0.26116
C         14.67930        18.54541         0.28458
C         15.98637         2.06271         0.24164
C         15.97860         3.50050         0.04562
C         17.22318         1.37579         0.22351
C         17.18193         4.19337        -0.08099
C         15.91882         6.37156        -0.15708
C         15.92999         7.78531        -0.06307
C         17.18639         5.64068        -0.51135
C         17.17343         8.50404        -0.00141
C         15.93507        10.64067         0.13950
C         15.94086        12.08071         0.19800
C         17.16521         9.92438         0.11663
C         17.17697        12.79052         0.26151
C         15.93445        14.91572         0.36161
C         15.89914        16.36667         0.76045
C         17.17119        14.21680         0.38274
C         17.17697        17.10060         0.46756
C         15.89939        19.21515         0.34958
C         17.16174        18.51807         0.36811
C         18.44709         2.05271         0.04913
C         18.43239         3.50175        -0.05683
C         19.67347         1.34725        -0.01785
C         19.63391         4.22009        -0.18525
C         18.44590         6.37807        -0.13503
C         18.41831         7.78525         0.01579
C         19.66382         5.66411        -0.10391
C         19.64380         8.49694         0.21151
C         18.40367        10.64344         0.21181
C         18.40791        12.06935         0.28267
C         19.63273         9.92546         0.27890
C         19.63885        12.78440         0.37444
C         18.40255        14.93337         0.49146
C         18.39875        16.38810         0.48565
C         19.63896        14.22282         0.45925
C         19.61723        17.10304         0.47626
C         18.38518        19.21250         0.28268
C         19.62407        18.52467         0.36217
C         20.90289         2.00863        -0.22129
C         20.87571         3.47512        -0.38519
C         22.13731         1.34203        -0.27801
C         22.20892         4.23253        -0.14143
C         20.89625         6.36656         0.11457
C         20.87595         7.78307         0.30090
C         22.14824         5.66896         0.20862
C         22.08892         8.50256         0.56371
C         20.85874        10.63680         0.42341
C         20.86576        12.07338         0.43244
C         22.06437         9.91229         0.62344
C         22.10072        12.79149         0.44985
C         20.87111        14.92248         0.48778
C         20.88992        16.38723         0.82998
C         22.10216        14.22577         0.40084
C         22.13283        17.09894         0.37881
C         20.86723        19.21620         0.30800
C         22.11002        18.52109         0.25802
C         23.38502         2.03064        -0.14253
C         23.37935         3.42421         0.13985
C         24.62571         1.33389        -0.12279
C         24.59018         4.06304         0.64822
C         23.32918         6.34782         0.49763
C         23.34696         7.78506         0.63887
C         24.57895         5.60697         0.77741
C         24.56810         8.45320         0.74212
C         23.28391        10.66914         0.93004
C         23.33301        12.10379         0.60572
C         24.61526         9.89154         0.99739
C         24.56564        12.77694         0.49496
C         23.33634        14.92952         0.28897
C         23.33612        16.37888         0.20039
C         24.57835        14.21136         0.24268
C         24.54025        17.08143        -0.03904
C         23.33636        19.20956         0.08976
C         24.56007        18.50893        -0.02292
C         25.86559         2.00673         0.05311
C         25.87492         3.39956         0.40862
C         27.10558         1.34240        -0.07601
C         27.07431         4.12194         0.50670
C         25.87260         6.28646         0.67350
C         25.84268         7.76294         0.32673
C         27.04725         5.56518         0.67384
C         27.08326         8.52465         0.70588
C         25.84105        10.65282         0.71151
C         25.79320        12.02905         0.53968
C         27.09946         9.91863         0.66696
C         27.06622        12.71701         0.21976
C         25.77256        14.89945        -0.01606
C         25.78048        16.33853        -0.45104
C         27.05216        14.18836        -0.06565
C         27.05849        17.06573        -0.10306
C         25.80848        19.19189        -0.09608
C         27.04567        18.49201        -0.05640
C         28.33146         2.04268         0.02604
C         28.32404         3.45710         0.26829
C         29.57481         1.36775        -0.14739
C         29.55715         4.18397         0.19181
C         28.34579         6.26668         0.83383
C         28.34168         7.80509         0.90392
C         29.58596         5.61148         0.43279
C         29.59752         8.51472         0.65506
C         28.34374        10.62823         0.67924
C         28.32448        12.12682         0.81626
C         29.57033         9.94096         0.59454
C         29.57089        12.80782         0.31483
C         28.31353        14.94019         0.05507
C         28.28773        16.36210         0.01837
C         29.54344        14.23210         0.11463
C         29.52684        17.08260         0.08220
C         28.27819        19.19648         0.02290
C         29.51770        18.52265         0.05390
C         30.78356         2.07103        -0.16359
C         30.75576         3.49115        -0.04543
C         32.06374         1.39338        -0.31175
C         32.03384         4.23603        -0.31667
C         30.79047         6.35034         0.38266
C         30.80319         7.79468         0.52673
C         32.02151         5.68547         0.10698
C         32.03468         8.51204         0.41466
C         30.80885        10.66475         0.47783
C         30.79132        12.09276         0.32522
C         32.03439         9.95150         0.42571
C         32.02834        12.77469         0.12447
C         30.75992        14.96518         0.03079
C         30.75891        16.37396         0.07301
C         32.05566        14.24134        -0.22986
C         32.01827        17.10628         0.07987
C         30.75012        19.22495         0.03029
C         31.99535        18.55086         0.03199
C         33.26282         2.04784        -0.16038
C         33.24684         3.50686         0.24999
C         34.53700         1.39201        -0.29301
C         34.51120         4.25452        -0.10150
C         33.23364         6.37942         0.07957
C         33.25708         7.80951         0.23012
C         34.48066         5.65861        -0.12612
C         34.49480         8.50946         0.17483
C         33.26114        10.66722         0.31420
C         33.23290        12.07986         0.17043
C         34.52387         9.95264         0.28786
C         34.51080        12.79100        -0.20006
C         33.23774        14.94664         0.43875
C         33.23754        16.43096         0.15492
C         34.53029        14.27140         0.08331
C         34.47700        17.12991         0.08282
C         33.22087        19.25121         0.00646
C         34.46277        18.57076         0.00332
C         35.73906         2.07249        -0.21233
C         35.75615         3.53342        -0.09537
C         37.00191         1.43725        -0.53294
C         36.95523         4.21881        -0.09507
C         35.69551         6.39988        -0.24431
C         35.69825         7.78733        -0.06871
C         36.97089         5.65055        -0.54771
C         36.99385         8.48657         0.10935
C         35.72809        10.65128         0.33793
C         35.74613        12.15296         0.42677
C         37.00821         9.94348         0.42824
C         36.96637        12.80271        -0.20956
C         35.71828        14.97296        -0.00518
C         35.71201        16.42612         0.03790
C         36.98373        14.28264        -0.18114
C         36.94149        17.12557        -0.07071
C         35.69348        19.26065        -0.06122
C         36.92451        18.57007        -0.09393
C         38.19441         2.11386        -0.50607
C         38.25910         3.49603         0.13567
C         39.41517         1.52010        -1.01861
C         39.48512         4.28425        -0.31689
C         38.22995         6.37873        -0.05341
C         38.20260         7.84633        -0.52571
C         39.46590         5.62572        -0.48325
C         39.51478         8.55828        -0.27841
C         38.32116        10.71611         0.47044
C         38.26532        12.06878        -0.20890
C         39.54360         9.93677         0.00982
C         39.52181        12.84706        -0.16918
C         38.19174        14.97267        -0.21069
C         38.18153        16.42154        -0.15808
C         39.47044        14.26434        -0.21321
C         39.40220        17.14273        -0.20561
C         38.15212        19.26746        -0.17446
C         39.37680        18.58251        -0.21939
C         40.60716         2.15774        -1.01057
C         40.77812         3.49983        -0.34403
C         41.93643         4.30355        -0.88140
C         40.60223         6.41497        -1.10631
C         40.70068         7.85451        -0.59273
C         41.88773         5.62165        -1.11526
C         41.91123         8.56336        -0.57652
C         40.75533        10.66383        -0.09391
C         40.74222        12.14216        -0.04317
C         41.93438         9.94221        -0.35921
C         41.92947        12.89644         0.02577
C         40.68818        14.99797        -0.17152
C         40.66449        16.45944        -0.23147
C         41.89846        14.28473        -0.04431
C         41.83860        17.21233        -0.30107
C         40.60878        19.30096        -0.28878
C         41.80727        18.62322        -0.33471
O         27.15335        13.14707        -1.15915
O         24.45714         4.73249         1.94835
O          2.82866        13.56842        -2.89244
O         28.40553         6.96512         2.12540
O          6.60411         4.01433         2.23696
O         21.67732         3.96878        -1.49505
O         37.10375         8.90422         1.51861
O         37.47288        12.15953        -1.42645
O         23.90898        10.32082         2.20641
O         12.06427         4.81855        -1.34127
O         12.39085        17.22972        -1.86502
H         13.19862        17.75398        -2.05168
O         32.29799        14.32171        -1.67769
H         31.48440        14.01725        -2.13375
O         17.19824         5.59881        -1.99209
H         16.38672         5.12557        -2.27597
O          5.94101         5.93463        -1.35753
H          6.68806         6.35735        -1.83144
O         41.10364         3.21592         1.06566
H         41.27353         4.07860         1.50167
O         38.38000         3.26199         1.56957
H         39.31137         2.96865         1.72132
O         38.51996        11.05077         1.88035
H         38.40559        10.21010         2.38098
O         10.06548         4.43492         2.38828
H          9.17770         4.47864         2.80807
O         35.77746        12.49306         1.83959
H         36.58078        12.07043         2.22375
O          6.03506        20.48648         0.60327
H          6.08620        20.63159        -0.36343
O          7.07892        10.18696         1.84914
H          6.28065         9.68328         2.11818
O         28.23213        12.43113         2.25408
H         28.99834        12.01079         2.69914
O          8.63778        16.66665        -1.84782
H          7.88216        16.23190        -2.29494
O         33.13982         3.54386         1.70016
H         33.93991         3.11808         2.07338
O         25.83917         7.78523        -1.16268
H         24.95918         7.46926        -1.46180
O         13.05471        12.25989         1.75430
H         13.71961        11.77680         2.28837
O         34.63170        12.64815        -1.64191
H         33.90944        13.19365        -2.03704
O          9.58007        16.74730         1.68936
H         10.29955        17.20377         2.17300
O         15.80867        16.34972         2.24134
H         14.98318        15.87194         2.47245
O         33.04650        14.77951         1.87770
H         33.89181        14.99606         2.32422
O         40.23944         6.56214        -2.53102
H         40.00196         5.67230        -2.86970
O         20.94626        16.43118         2.32033
H         20.10703        16.04321         2.65021
O         32.21138         4.23669        -1.77169
H         31.42744         4.67075        -2.16878
O         38.26107         6.35366         1.38807
H         37.60823         6.99521         1.74474
O         37.09296         5.53635        -2.00905
H         36.21820         5.25826        -2.35502
O         25.75025        16.31430        -1.94411
H         25.04160        15.69068        -2.21177
O         12.59053        12.58234        -1.85832
H         11.95574        13.11725        -2.37932
O         37.95525         7.94384        -1.94219
H         38.71357         7.50994        -2.41193
O          4.79619         6.07001         2.13183
H          5.43797         5.45133         2.56288
O          5.87863        15.97231         1.67497
H          5.07655        15.42225         1.79856
H          0.33637         1.41849        -0.19828
H          0.25806         3.87942        -0.28119
H          2.47771         0.21121         0.15366
H          0.27799         5.75635        -0.69948
H          0.31453         8.13903        -1.16006
H          0.52370         9.79285        -2.05739
H          0.77853        12.04886        -3.05776
H          0.88224        15.17437        -3.17140
H          0.66767        17.46715        -2.16940
H          1.68060        19.29708        -0.93827
H          4.88147         0.25153         0.51441
H          3.64742        20.29402         0.24089
H          7.34582         0.29519         0.82181
H          5.93808        18.94540         1.95826
H          9.81219         0.30835         1.02543
H          8.43617        20.27294         0.36573
H         12.31365         0.29151         0.75143
H         10.96534        20.33006         0.31728
H         14.78520         0.28665         0.58291
H         13.42653        20.32487         0.46420
H         17.22652         0.28024         0.32487
H         15.91071        20.31535         0.33576
H         19.66440         0.25220         0.08699
H         18.38212        20.30870         0.19063
H         22.14978         0.24212        -0.28255
H         20.86635        20.31324         0.22831
H         24.63138         0.25111        -0.31508
H         23.33763        20.30921         0.05365
H         27.11994         0.26575        -0.30172
H         25.81644        20.29176        -0.08454
H         29.57445         0.27580        -0.28192
H         28.26396        20.29669         0.01933
H         32.05367         0.31279        -0.52605
H         30.73696        20.32493        -0.00244
H         34.54552         0.31296        -0.51597
H         33.21205        20.35125        -0.02261
H         36.97661         0.39601        -0.89385
H         35.69453        20.36019        -0.10195
H         39.33805         0.51809        -1.47096
H         38.14644        20.36731        -0.20115
H         41.49946         1.66761        -1.42825
H         42.89582         3.77047        -0.98197
H         42.79421         6.13087        -1.47793
H         42.85701         8.05087        -0.80129
H         42.89591        10.46797        -0.43827
H         42.90037        12.39402         0.13613
H         42.85161        14.82719         0.01393
H         42.81754        16.71595        -0.33576
H         40.58555        20.40003        -0.30601
H         42.75404        19.17839        -0.39268
