         349
 CSIRO Nanostructure Databank - Neutral Graphene Oxide Data Set
C          2.43060         2.12772        -3.50353
C          2.30202         3.49082        -3.36950
C          3.56813         1.43820        -3.04283
C          3.44436         4.33228        -2.87723
C          2.03611         6.51496        -2.80409
C          1.88308         7.79661        -2.38401
C          2.98958         5.60206        -2.16246
C          2.77806         8.44087        -1.43362
C          1.56966        10.62781        -1.72205
C          1.44134        11.96117        -1.52771
C          2.64690         9.85549        -1.13946
C          2.35303        12.70452        -0.58833
C          1.29070        14.92618        -1.14163
C          1.34313        16.27858        -1.42108
C          2.47414        14.17783        -0.91517
C          2.58666        16.95864        -1.44893
C          2.67403        18.35848        -1.72459
C          4.55491         2.10951        -2.25426
C          4.44899         3.54042        -2.06386
C          5.55810         1.38215        -1.61837
C          5.42271         4.23438        -1.31418
C          4.00426         6.28418        -1.22899
C          3.88691         7.72500        -0.98263
C          5.30048         5.62339        -1.06463
C          4.92853         8.37390        -0.15766
C          3.65606        10.55966        -0.42578
C          3.66036        11.96983        -0.40537
C          4.79378         9.82780         0.18632
C          4.87959        12.67929        -0.15411
C          3.70568        14.82545        -0.91258
C          3.77858        16.22624        -1.17759
C          4.99402        14.05259        -0.78425
C          5.03514        16.91312        -1.14567
C          3.88203        19.01172        -1.68155
C          5.08665        18.31293        -1.35937
C          6.45202         2.00537        -0.59057
C          6.55704         3.50559        -0.75449
C          7.79804         1.33607        -0.47740
C          7.60954         4.16817        -0.18685
C          6.44078         6.41337        -0.62735
C          6.28018         7.78444        -0.11933
C          7.69531         5.63939        -0.21612
C          7.39886         8.54292         0.24749
C          5.99556        10.59942         0.75569
C          6.01123        12.03752         0.31126
C          7.35669         9.93595         0.51382
C          7.20922        12.79130         0.74190
C          6.13771        14.90266        -0.29571
C          6.21479        16.21323        -0.69249
C          7.23804        14.28745         0.46631
C          7.55864        16.89771        -0.78907
C          6.31111        19.03145        -1.16634
C          7.48956        18.40766        -0.78220
C          8.87562         1.98441         0.08915
C          8.69810         3.40901         0.47460
C         10.11922         1.34981         0.37870
C          9.95513         4.21916         0.90681
C          8.63862         6.36213         0.73854
C          8.70641         7.83551         0.33658
C          9.95998         5.65266         0.71341
C          9.93459         8.58901         0.69908
C          8.55586        10.69348         0.77273
C          8.48323        12.08488         0.95406
C          9.85855        10.04834         0.93640
C          9.66027        12.85031         1.41148
C          8.50941        15.03742         0.59613
C          8.59524        16.31609         0.14113
C          9.62067        14.38528         1.34134
C          9.73202        17.20065         0.59934
C          8.70724        19.12139        -0.62420
C          9.86658        18.49789        -0.15807
C         11.23461         2.05727         0.86832
C         11.20632         3.47656         1.03000
C         12.47844         1.38279         1.09680
C         12.36617         4.23193         1.35846
C         11.26567         6.41404         0.64663
C         11.03844         7.79349         1.37021
C         12.35303         5.61420         1.32827
C         12.29676         8.60745         1.51858
C         11.01866        10.72813         1.28900
C         10.99195        12.17757         1.46589
C         12.28526         9.99188         1.49327
C         12.16085        12.88791         1.64351
C         10.92579        15.13133         1.39568
C         10.99839        16.42706         0.74094
C         12.21118        14.37896         1.68026
C         12.26910        16.89750         0.11301
C         11.12950        19.11748        -0.21869
C         12.32665        18.41573         0.01146
C         13.62976         2.05170         1.49278
C         13.62585         3.52789         1.83634
C         14.85012         1.36112         1.64471
C         14.84838         4.28186         1.24846
C         13.52499         6.34546         1.86169
C         13.49679         7.87978         1.94621
C         14.83656         5.70144         1.80695
C         14.78047         8.58770         2.02936
C         13.51827        10.70403         1.78316
C         13.43275        12.17774         1.94735
C         14.73278        10.03291         1.98770
C         14.69522        12.96157         2.14698
C         13.49964        15.06535         1.33369
C         13.50911        16.27141         0.70493
C         14.78285        14.47773         1.93546
C         14.77807        16.87393         0.13093
C         13.56119        19.07191        -0.05656
C         14.79075        18.38975         0.06529
C         16.06301         2.05001         1.83588
C         16.20540         3.52160         1.42584
C         17.26409         1.38972         2.03415
C         17.26630         4.20647         2.29062
C         15.96443         6.42978         2.14206
C         15.94872         7.86220         2.26849
C         17.22622         5.69909         2.43450
C         17.20975         8.58020         2.71872
C         16.00406        10.73439         2.17460
C         16.00807        12.21954         2.27094
C         17.18922        10.05033         2.31723
C         17.32344        12.96101         2.08480
C         15.99765        14.84339         1.04462
C         15.99615        16.34038         0.85388
C         17.32012        14.33552         1.57712
C         17.27461        17.09643         0.76734
C         16.00133        19.07891        -0.03182
C         17.26425        18.45172         0.17474
C         18.53409         2.07126         1.99060
C         18.58213         3.51960         2.18252
C         19.67622         1.33984         1.75747
C         19.77019         4.22228         2.25304
C         18.50525         6.42409         2.40017
C         18.51529         7.84178         2.39676
C         19.72028         5.68594         2.39687
C         19.73772         8.54023         2.28250
C         18.47555        10.78549         2.44460
C         18.56818        12.19844         2.04516
C         19.76283        10.00740         2.46082
C         19.79274        12.85376         1.79618
C         18.52399        14.98164         1.36055
C         18.55230        16.37258         0.90773
C         19.78523        14.26698         1.50457
C         19.72253        17.04082         0.65789
C         18.47440        19.08591        -0.05035
C         19.72238        18.42168         0.18991
C         20.97536         1.99941         1.65355
C         21.04965         3.48042         1.94935
C         21.98897         1.37609         0.77263
C         22.11825         4.19276         1.17972
C         20.89495         6.46358         2.48266
C         20.97621         7.83308         2.18469
C         22.51429         5.43608         1.55995
C         22.26725         8.44758         1.82148
C         21.07600        10.72499         2.29259
C         21.05411        12.16256         1.90329
C         22.33544         9.91305         2.08006
C         22.24200        12.82325         1.57342
C         20.99970        14.91732         1.19115
C         21.03834        16.43017         1.07212
C         22.19968        14.18620         1.16572
C         22.18344        16.99267         0.27569
C         20.92753        19.06863        -0.05480
C         22.18057        18.35995        -0.05523
C         22.83024         2.11106        -0.03230
C         22.72973         3.59859        -0.02129
C         23.87183         1.49625        -0.78546
C         23.76405         4.44407        -0.74385
C         23.29744         6.36511         0.78346
C         23.32387         7.79731         1.14067
C         24.02646         5.83057        -0.26761
C         24.49558         8.51579         0.64724
C         23.60511        10.64583         1.76104
C         23.59420        12.17386         1.85131
C         24.73066         9.90640         1.10375
C         24.76387        12.81153         1.11466
C         23.36592        14.69211         0.35074
C         23.36449        16.18143         0.01022
C         24.70731        14.13441         0.77470
C         24.64673        16.94167        -0.25045
C         23.38031        19.04673        -0.42039
C         24.63111        18.41434        -0.40641
C         24.88417         2.22633        -1.42703
C         24.81398         3.70875        -1.53561
C         26.00700         1.56495        -1.95355
C         26.06534         4.44856        -1.95149
C         25.12278         6.62616        -0.84468
C         25.43192         7.92916        -0.20968
C         26.20791         5.91534        -1.63177
C         26.67940         8.56043        -0.58322
C         25.83540        10.68742         0.51583
C         25.93699        12.03991         0.72461
C         26.83818        10.05004        -0.41213
C         27.15335        12.74441         0.29306
C         25.96396        14.88025         0.55204
C         25.94961        16.31784         0.12241
C         27.19757        14.13375         0.33660
C         27.16604        16.94331        -0.43717
C         25.85037        19.04399        -0.72134
C         27.08124        18.32400        -0.84290
C         27.21004         2.24732        -2.28754
C         27.29352         3.66500        -2.18200
C         28.39102         1.51464        -2.59689
C         28.52893         4.32719        -2.32304
C         27.56810         6.50746        -1.65001
C         27.71862         7.88579        -1.22927
C         28.63076         5.76399        -2.12995
C         29.02701         8.53155        -1.42825
C         28.25599        10.49603        -0.04518
C         28.31649        12.00583        -0.06136
C         29.27715         9.84417        -0.94796
C         29.52139        12.68925        -0.38047
C         28.48768        14.89772         0.24925
C         28.37190        16.25361        -0.43128
C         29.61062        14.06936        -0.30043
C         29.56923        16.90233        -0.86351
C         28.26403        18.96015        -1.25910
C         29.50213        18.27885        -1.26547
C         29.61013         2.15869        -2.70733
C         29.70778         3.55927        -2.54771
C         30.99976         4.21399        -2.50493
C         29.89211         6.43838        -2.61554
C         30.07003         7.84157        -2.08780
C         31.10837         5.55836        -2.43604
C         31.29525         8.48345        -2.30536
C         30.50733        10.48119        -1.17790
C         30.78311        11.89077        -0.68309
C         31.51518         9.78237        -1.86035
C         31.65548        12.68106        -1.63813
C         30.94291        14.75659        -0.49332
C         30.82704        16.23095        -0.85487
C         31.75429        14.00893        -1.52612
C         31.97722        16.93875        -1.18128
C         30.70449        18.95191        -1.63085
C         31.91554        18.29628        -1.56960
O         13.88126        12.62269         3.31031
O         24.99171         4.17615        -2.90782
O         13.22752         7.02410         3.13964
O         14.79463        16.37515        -1.22261
O          4.36275         8.80770         1.16345
O          7.63150         6.22874        -1.51834
O          8.90381         3.70930         1.85026
O         21.51023         2.52473         2.95030
O         26.09439        16.00960         1.55644
O         25.20170         6.72175        -2.31432
O          9.32131        13.70343         2.57351
O         22.40730         4.24689        -1.28935
O         17.00705         4.77934         3.59068
O          9.66297         8.20211        -0.70577
O         16.82690         3.37351         0.17366
O         16.70132        12.74041         3.43966
O         22.09879         5.85148         2.82894
O         11.51523        15.05423         2.77058
O          6.81496        13.77386         1.77194
O         16.43709        17.07068         2.01229
O          2.85146         5.48576        -0.73787
O         24.68324        10.07775         2.58037
O         21.92630        10.34798         3.42682
O         23.92785        16.32769        -1.36863
O         19.15004        10.44552         3.73033
O         14.61629         4.40557        -0.16092
H         15.45329         4.04709        -0.58173
O         26.59883        10.61425        -1.74125
H         25.83961        10.14432        -2.14636
O          5.78316         1.78607         0.71004
H          6.31461         2.24234         1.39800
O          5.38626        13.71396        -2.17477
H          5.52424        14.55871        -2.65549
O         29.71337         6.57850        -4.06884
H         29.53058         5.68477        -4.42964
O         31.49398        11.77258         0.58338
H         31.72961        12.69526         0.85849
O         31.62534        14.64203         0.79980
H         30.98425        14.96790         1.47460
O          5.85293        10.62102         2.20197
H          5.37211         9.79543         2.44816
O         14.98179        15.07721         3.21922
H         14.42416        14.58864         3.86456
O         23.11695        13.99190        -0.92343
H         23.47924        14.56712        -1.64011
O         13.71854         3.64007         3.27263
H         12.93221         3.21695         3.67471
O         17.13713         8.60583         4.17525
H         17.86701         9.19417         4.48758
O         12.19412        16.40405        -1.26234
H         13.16984        16.36087        -1.56329
O         15.82368        14.17867        -0.22718
H         15.42801        14.86662        -0.85906
O         21.26531        16.90356         2.45129
H         20.47532        16.66606         2.98314
O         28.86311        15.22783         1.65009
H         28.05766        15.64361         2.04688
O          8.04785         6.30751         2.05983
H          8.74016         6.61817         2.69239
O          4.15957         4.82292        -4.07014
H          4.43418         4.03941        -4.59240
O         28.53675        10.05623         1.30830
H         29.44432        10.35347         1.53595
O          8.03377        16.55176        -2.14376
H          7.59420        17.15592        -2.77891
O          9.38158        17.62291         1.97067
H          9.41314        16.83330         2.55477
O         23.85573        12.50222         3.24395
H         24.35147        11.74611         3.63371
O         11.72784         6.62112        -0.70791
H         11.02253         7.11415        -1.19402
O          1.68916        12.66031         0.72633
H          1.64487        11.72086         1.00587
O         10.56140         7.47340         2.71052
H         11.36488         7.23276         3.24396
H          1.61656         1.55359        -3.97008
H          1.40061         3.99615        -3.74401
H          3.64380         0.35078        -3.17798
H          1.44125         6.14622        -3.65256
H          1.11465         8.40284        -2.88046
H          0.82867        10.12413        -2.35615
H          0.59227        12.49658        -1.97684
H          0.31650        14.42084        -1.08874
H          0.41745        16.84207        -1.60663
H          1.75229        18.91278        -1.95304
H          5.59618         0.28966        -1.74672
H          3.93293        20.09457        -1.86577
H          7.85937         0.25470        -0.67391
H          6.28985        20.12850        -1.25584
H         10.22150         0.27617         0.16663
H          8.75313        20.17219        -0.95258
H         12.52576         0.29697         0.91943
H         11.18756        20.16729        -0.54980
H         14.87517         0.27469         1.45759
H         13.57047        20.16763        -0.18031
H         17.26372         0.31070         2.26109
H         15.98678        20.15415        -0.27395
H         19.60150         0.27015         1.50787
H         18.49174        20.11257        -0.44604
H         22.04624         0.27638         0.75125
H         20.92026        20.12065        -0.37580
H         23.95741         0.39945        -0.75264
H         23.31934        20.11865        -0.65970
H         26.01621         0.46455        -1.95399
H         25.85855        20.12721        -0.91296
H         28.32993         0.42210        -2.70045
H         28.23222        20.01700        -1.56293
H         30.52432         1.57880        -2.89929
H         31.89846         3.57928        -2.47895
H         32.10412         6.01959        -2.37476
H         32.09823         7.96505        -2.84608
H         32.49782        10.24208        -2.02908
H         32.23976        12.15793        -2.40882
H         32.40610        14.57810        -2.20593
H         32.95534        16.43954        -1.13635
H         30.65439        20.00652        -1.93743
H         32.84367        18.82450        -1.82837
