         260
 CSIRO Nanostructure Databank - Neutral Graphene Oxide Data Set
C         30.37715        32.00933        -0.16434
C         30.26557        32.98127        -0.93285
C         30.34326        36.22458        -1.38422
C         30.38386        37.45026        -1.28182
C         30.62969        40.45404        -0.24625
C         30.28563        41.43007         0.55260
C         32.76070        29.75092         1.80560
C         31.82135        30.30960         1.10339
C         32.66424        31.55644        -0.79740
C         31.45082        31.09959         0.06625
C         32.66637        32.97522        -1.32536
C         31.37659        33.78836        -1.45764
C         32.77274        35.96871        -1.38551
C         31.44143        35.27009        -1.58754
C         32.79875        37.48149        -1.40642
C         31.52244        38.35986        -1.43216
C         32.89355        40.47079        -0.92688
C         31.56375        39.74672        -0.92762
C         32.91729        41.89407        -0.46759
C         30.88639        42.66723         0.31770
C         32.57632        44.16382         1.13660
C         31.42537        43.67622         1.17979
C         35.60922        27.73722         2.27764
C         35.28990        28.95493         1.55362
C         33.94533        29.35714         1.21217
C         35.17301        31.60173        -0.33094
C         33.98513        30.95096        -0.44622
C         35.24140        33.01178        -0.84091
C         33.97799        33.73338        -1.31756
C         35.25138        35.93541        -1.17330
C         33.92120        35.23550        -1.21611
C         35.23043        37.32208        -0.59664
C         33.97124        38.11797        -0.71963
C         35.13010        40.16279         0.36706
C         34.10001        39.61309        -0.64196
C         35.25335        41.67555         0.22451
C         33.96812        42.45022         0.22309
C         35.09209        44.44516         1.19873
C         33.93163        43.78396         0.85491
C         35.35122        45.79797         1.57631
C         37.76539        27.32979         1.22379
C         36.57852        27.02478         1.93769
C         37.60620        28.70071         0.61057
C         36.36509        29.50548         0.83853
C         37.72348        31.53592        -0.09249
C         36.37814        31.00608         0.44659
C         37.72127        32.95773        -0.57927
C         36.46265        33.81769        -0.40401
C         37.84669        35.94627        -0.94534
C         36.54625        35.18197        -1.10459
C         37.81752        37.42519        -0.61332
C         36.51258        37.99115        -0.13843
C         37.77307        40.15456         0.61691
C         36.47944        39.40757         0.34587
C         37.75479        41.61226         0.96671
C         36.50465        42.37166         0.62367
C         37.73462        44.56726         1.08109
C         36.43536        43.77940         1.12029
C         37.61858        46.09652         0.86108
C         36.36913        46.51385         1.62807
C         40.22863        24.66868         1.86974
C         39.17865        25.31071         1.68787
C         40.19739        27.13676         0.57506
C         38.89840        26.56944         1.07825
C         40.19114        28.61760         0.21719
C         38.88480        29.36405         0.12259
C         40.27812        31.36291        -0.55277
C         38.90027        30.84527        -0.05433
C         40.34372        32.91219        -0.70601
C         39.03463        33.66123        -0.77809
C         40.21415        35.89591         0.03154
C         39.11663        35.17928        -0.76489
C         40.42510        37.36793        -0.48544
C         39.10190        38.15700        -0.33908
C         40.24235        40.18694         0.54131
C         39.08286        39.49506         0.33600
C         40.25646        41.69049         0.53002
C         39.06008        42.41959         1.11906
C         40.25351        44.65391         0.90294
C         38.97168        43.86800         0.65101
C         40.13401        46.11977         0.50421
C         38.91473        46.81549         1.07033
C         40.12690        48.96631         0.78381
C         39.17859        48.18179         1.10139
C         42.82726        24.62710         1.62556
C         41.53229        25.17924         1.53319
C         42.70580        27.18823         0.58684
C         41.49357        26.49634         0.97045
C         42.69818        28.59421         0.37876
C         41.42606        29.35020         0.72508
C         42.73052        31.59507         0.43173
C         41.41511        30.86311         0.39627
C         42.83086        32.97520        -0.06439
C         41.60106        33.69511        -0.41714
C         42.82882        35.89245         0.21922
C         41.54678        35.13036         0.06311
C         42.81245        37.37800         0.27040
C         41.61748        38.04992         0.17061
C         42.82353        40.26041         0.64390
C         41.54174        39.48149         0.53991
C         42.85705        41.79272         0.75931
C         41.53459        42.45964         0.38120
C         42.67128        44.64144         0.12771
C         41.53202        43.95828         0.45613
C         42.64174        46.11424        -0.12065
C         41.38523        46.89875         0.24571
C         42.69255        48.94345         0.13945
C         41.51614        48.36327         0.87181
C         43.83613        25.23698         1.15152
C         45.14127        27.02968        -0.19113
C         43.97704        26.48949         0.57983
C         45.22299        28.60899        -0.11599
C         43.98399        29.31708         0.39227
C         45.24655        31.53221         0.02497
C         44.01370        30.80970         0.58353
C         45.31000        32.99492         0.47224
C         44.03562        33.74398         0.26371
C         45.39564        35.91589         0.31260
C         44.12804        35.19568        -0.15984
C         45.30517        37.37566         0.36237
C         44.09638        38.05316         0.39019
C         45.29262        40.32920        -0.02748
C         44.05385        39.53552         0.19088
C         45.28082        41.81864         0.04204
C         44.07567        42.47005         0.15474
C         45.26028        44.70584        -0.24505
C         43.94785        43.91504        -0.16106
C         45.21849        46.19265        -0.17273
C         43.96278        46.89349        -0.38799
C         43.73104        48.30325        -0.07874
C         47.55659        27.23327         0.15656
C         46.51530        26.57197         0.27909
C         47.84725        28.61880         0.00192
C         46.53563        29.35428        -0.14430
C         47.78407        31.61599        -0.20244
C         46.57928        30.80046         0.36374
C         47.91672        32.97969         0.53146
C         46.61833        33.75030         0.57898
C         47.92350        35.96417         0.65901
C         46.58313        35.23694         0.48282
C         47.83221        37.37233         0.05536
C         46.58634        38.14549         0.38145
C         47.79532        40.35993        -0.42492
C         46.59468        39.62869         0.17005
C         47.77745        41.83603        -0.03296
C         46.57374        42.51328         0.00567
C         47.79938        44.79033         0.46011
C         46.50455        43.98905         0.22788
C         47.64873        46.18943         0.02720
C         46.48176        46.70145         0.11184
C         50.36428        28.79207         0.14266
C         49.04232        29.29192        -0.03446
C         50.40959        31.50602        -0.27438
C         49.08971        30.78745        -0.28336
C         50.49853        32.98319         0.06136
C         49.26326        33.75921         0.58771
C         50.31939        35.92663        -0.32961
C         49.10966        35.18729         0.07596
C         50.39882        37.41431         0.09978
C         49.08721        38.13150        -0.22462
C         50.37900        40.37705        -0.16124
C         49.08403        39.63014        -0.06103
C         50.33785        41.85637        -0.34994
C         49.09008        42.51960         0.15148
C         50.30105        44.60917        -0.22548
C         49.09041        44.05910         0.38350
C         51.46847        29.37653        -0.04880
C         52.73908        31.58193        -0.73133
C         51.73609        30.73036        -0.26137
C         52.65646        32.78307        -1.16611
C         51.74203        33.70724        -0.42195
C         52.79732        36.07326        -0.54594
C         51.63807        35.16989        -0.65937
C         52.68475        37.30855        -0.66659
C         51.62030        38.21537        -0.40150
C         52.61574        40.49048        -0.93993
C         51.60650        39.57552        -0.50680
C         52.61663        41.73288        -1.00863
C         51.48659        42.57373        -0.70872
C         51.33104        43.99025        -0.54460
O         49.77053        40.01316         1.15920
O         45.78103        29.12822        -1.37040
O         44.49489        33.35393         1.61677
O         31.78183        42.62774        -0.83163
O         44.18783        29.99178         1.75811
O         50.75612        35.59266        -1.71199
O         38.41796        38.26722        -1.64307
O         42.17588        35.26661         1.37880
O         33.91139        40.20818        -1.95025
O         43.12133        46.42779        -1.46348
O         33.93482        29.58423        -0.19626
O         38.77224        35.72266        -2.05957
O         41.17914        33.40206        -1.79294
O         40.57938        30.72630        -1.74159
O         49.31042        43.15738         1.46611
O         40.76964        42.05511        -0.80099
O         34.94630        33.18041        -2.25275
O         31.31478        34.41840        -2.75054
O         32.30620        38.11063        -2.61853
O         40.41781        46.66411        -0.81944
O         49.75840        31.15896        -1.54773
O         44.49781        39.86121        -1.17636
O         32.54377        31.81148        -2.21221
O         36.46579        38.27148         1.28632
O         41.75304        31.62812         1.57257
O         47.25048        33.17810         1.79241
O         42.26332        39.67820         1.84782
O         44.61720        44.18976        -1.43788
O         48.30260        37.57889        -1.32191
O         36.16967        42.18226        -0.79648
O         46.76412        39.08180         1.50558
O         37.96993        28.71134        -0.80508
O         35.98239        35.56200        -2.38541
O         37.65149        40.63338         2.02226
O         40.31993        27.61942        -0.80733
O         51.62281        33.27315         0.94601
O         34.25331        37.39375         0.50778
O         38.27310        33.14558        -1.90860
O         37.20481        44.01483         2.35014
O         46.94069        44.40712         1.55769
O         39.70892        35.96711         1.37464
H         40.48456        35.94311         1.98600
O         44.94509        31.54184        -1.37823
H         45.76242        31.74469        -1.89500
O         48.10528        36.14498         2.08620
H         49.00768        36.53540         2.22256
O         49.58022        33.93201         1.98518
H         48.74802        34.20111         2.44842
O         41.29387        29.25290         2.17250
H         41.96350        29.85870         2.57048
O         39.35211        42.40978         2.55647
H         38.52534        42.70912         3.00860
O         36.24757        31.65970         1.77463
H         36.91425        31.27338         2.38278
O         40.81563        37.32664        -1.86257
H         39.99291        37.23149        -2.40670
O         34.53197        39.96168         1.65943
H         34.81453        39.06880         1.97573
O         37.34079        46.24675        -0.53361
H         37.46128        47.18323        -0.79811
O         41.85256        48.19513         2.22289
H         41.92649        49.06878         2.65898
O         43.00171        42.10235         2.17427
H         42.61738        41.34842         2.68349
O         50.49091        37.38546         1.54677
H         50.45631        38.32258         1.86438
O         44.95850        26.67022        -1.53743
H         45.49179        27.28136        -2.09571
O         46.77689        30.71617         1.77512
H         45.92646        30.45606         2.20574
O         36.33010        34.21003         0.97817
H         36.24305        33.38875         1.53027
O         47.46133        32.00120        -1.55552
H         48.26680        31.86187        -2.11687
O         44.21314        35.15659        -1.60415
H         44.07629        36.05742        -1.96637
O         40.41665        44.79446         2.35305
H         40.24535        43.89921         2.75297
O         47.68220        40.30873        -1.86311
H         47.69387        39.36224        -2.14057
