         320
 CSIRO Nanostructure Databank - Neutral Graphene Oxide Data Set
C         30.25401        31.67746         0.99665
C         30.40927        32.85866         1.34346
C         30.43693        36.02056         1.53341
C         30.32004        37.22490         1.23325
C         30.31784        40.31218         0.49209
C         30.31913        41.40012        -0.17323
C         32.59321        29.15583        -0.42343
C         31.52104        29.59691         0.03474
C         32.71055        31.70077         0.57561
C         31.30275        31.09441         0.07617
C         32.77110        32.96048         1.19436
C         31.54785        33.72110         1.48262
C         32.79108        35.90747         1.47418
C         31.52349        35.09511         1.55117
C         32.69526        37.30880         0.85649
C         31.50402        38.18252         1.38754
C         32.61661        40.00698        -0.00017
C         31.48074        39.47846         0.60597
C         32.61391        41.23117        -0.90199
C         31.28667        42.09829        -0.85659
C         32.54433        43.90169        -1.69205
C         31.42024        43.36369        -1.48002
C         35.61134        28.11306        -1.39724
C         34.95202        29.37493        -1.40496
C         33.88522        29.77082        -0.53660
C         35.19033        31.51210         0.84461
C         33.90337        31.01808         0.16245
C         35.21296        33.04478         0.63651
C         34.11707        33.64042         1.54776
C         35.30680        35.84796         0.84788
C         34.08450        35.16688         1.40734
C         35.25484        37.32622         0.71754
C         33.99606        38.11202         1.05184
C         35.07213        40.36886         0.56443
C         33.97822        39.34259         0.12021
C         35.16005        41.42361        -0.54314
C         33.83688        42.16640        -0.56487
C         35.10627        44.34029        -1.47275
C         33.93377        43.45030        -1.85595
C         35.52746        45.42743        -2.45585
C         37.68212        27.26885        -0.02155
C         36.57666        27.42847        -1.05143
C         37.82390        28.73931         0.39794
C         36.61256        29.48606         0.75342
C         37.69215        31.55254        -0.07417
C         36.47617        30.81947         0.47324
C         37.67944        33.05411         0.19707
C         36.58724        33.70629         0.64727
C         37.80684        35.95326         0.32838
C         36.66944        35.17909         1.02642
C         37.66904        37.45303         0.06005
C         36.55807        38.08173         0.96818
C         37.69874        40.32704         0.58151
C         36.41670        39.62024         0.82166
C         37.73259        41.59133        -0.26496
C         36.36358        42.36741        -0.32723
C         37.80727        44.25875        -1.39163
C         36.45321        43.44862        -1.43840
C         37.78179        45.76576        -1.61737
C         36.56136        46.10304        -2.36205
C         40.24982        24.66109        -0.75420
C         39.22437        25.34362        -0.79454
C         40.22506        27.18890         0.36929
C         39.01308        26.80520        -0.62290
C         40.28545        28.70899         0.51042
C         38.99926        29.42296         0.33303
C         40.26392        31.62789         0.04311
C         38.97384        30.91975         0.57287
C         40.17993        33.13901         0.44024
C         38.94670        33.79907        -0.22156
C         40.24855        36.00119        -0.50636
C         38.94466        35.31332        -0.02852
C         40.26630        37.58198        -0.32819
C         38.98371        38.19262         0.20976
C         40.20964        40.30905         0.58492
C         38.95927        39.53116         0.42213
C         40.18897        41.80712         0.53124
C         38.87848        42.55040         0.21765
C         40.30373        44.51986        -0.68059
C         39.05207        43.70024        -0.76593
C         40.29913        45.83335        -1.02637
C         39.01372        46.57154        -1.35111
C         40.44935        48.43129        -1.83079
C         39.32712        47.88489        -1.95168
C         42.82109        24.64757        -0.70949
C         41.53727        24.97415        -0.02690
C         42.85554        27.23632         0.29059
C         41.53569        26.55575        -0.00447
C         42.85186        28.76076         0.37929
C         41.57028        29.47748         0.60750
C         42.73227        31.66146         0.40841
C         41.56504        30.95889         0.45861
C         42.72366        33.13001         0.37564
C         41.47137        33.90592         0.25889
C         42.80866        36.01294         0.08935
C         41.47476        35.26283         0.06965
C         42.68901        37.41739         0.66302
C         41.49437        38.22358         0.29278
C         42.74686        40.33979         0.68988
C         41.48269        39.56580         0.54563
C         42.74616        41.84684         0.85810
C         41.45500        42.67756         0.59402
C         42.79953        44.56741        -0.14956
C         41.60879        43.70266        -0.55307
C         42.64136        45.90825        -0.24741
C         41.66594        46.45161        -1.28626
C         43.03620        48.48241        -1.44544
C         41.75088        47.98582        -1.54051
C         43.78552        25.37239        -0.93477
C         45.34384        27.27983        -0.30437
C         43.96679        26.84906        -0.79424
C         45.33667        28.76593         0.21832
C         44.01745        29.46131         0.34287
C         45.29537        31.68564         0.19900
C         44.05269        30.94842         0.70867
C         45.12465        33.15722        -0.20445
C         43.91726        33.80594         0.40622
C         45.22798        35.88146         1.07020
C         43.84658        35.23042         0.89599
C         45.27129        37.37685         1.47516
C         43.93992        38.10411         1.14841
C         45.25319        40.31666         1.46844
C         44.02325        39.58874         0.92058
C         45.39278        41.69016         0.74983
C         44.08877        42.52374         0.75863
C         45.38588        44.78405         0.53622
C         44.16446        43.88961         0.02808
C         45.56580        46.09851        -0.32193
C         44.59506        47.06441        -0.33417
C         44.24145        48.07087        -1.29675
C         47.38716        27.88421        -1.27913
C         46.29951        27.27923        -1.57299
C         47.78270        28.97499        -0.53298
C         46.59261        29.59242         0.14704
C         47.81365        31.91505         0.13978
C         46.51228        31.08761         0.13031
C         47.58047        33.20912        -0.70744
C         46.39649        33.94426        -0.15310
C         47.83998        35.89255         0.79661
C         46.48993        35.16858         0.63602
C         47.79675        37.43168         0.86069
C         46.52828        38.15104         1.06813
C         47.79433        40.26474         1.37670
C         46.51903        39.51308         1.20629
C         47.83028        41.75967         1.52979
C         46.52655        42.58582         1.40642
C         48.01160        44.29952        -0.00282
C         46.65247        43.84151         0.51527
C         47.98486        45.68477        -0.51831
C         46.88352        46.18451        -0.82705
C         50.17499        29.19389        -1.39507
C         49.08067        29.62764        -0.51426
C         50.30797        31.94098        -0.80195
C         49.08969        31.16434        -0.31439
C         50.16147        33.42078        -1.07721
C         48.84787        34.07811        -0.82044
C         50.28080        35.87648         0.23349
C         48.87115        35.52166        -0.33092
C         50.31799        37.42283         0.45994
C         49.00020        38.08860         0.85175
C         50.29930        40.13164         1.66143
C         49.07693        39.61240         0.88665
C         50.37830        41.64014         1.85774
C         49.17492        42.46676         1.40945
C         50.57616        44.01693        -0.02849
C         49.26017        43.74315         0.59108
C         51.05108        29.88491        -1.94226
C         52.29664        32.17773        -2.28030
C         51.13874        31.26489        -2.39710
C         52.37919        33.35897        -1.89951
C         51.47123        34.18039        -1.12581
C         52.54209        36.37324        -0.32932
C         51.50074        35.45374        -0.66225
C         52.73844        37.34807         0.42000
C         51.57984        37.82878         1.30474
C         52.84825        40.05434         1.82055
C         51.56265        39.29135         1.72893
C         52.83206        41.20939         1.25350
C         51.95208        42.18723         0.94126
C         51.59451        43.34643         0.33131
O         49.34914        33.91383        -2.19863
O         43.42219        42.38878         2.03768
O         40.85114        29.06223         1.84547
O         40.25476        38.19404        -1.73178
O         42.93130        37.64742         2.09927
O         38.77838        43.51406        -2.19956
O         37.96092        46.49190        -0.36529
O         35.14272        36.47359        -0.45918
O         49.20940        43.78560         2.03770
O         40.09029        41.12737         1.82691
O         47.84281        40.88335         2.70334
O         50.69859        39.43551         2.88948
O         43.64166        39.94885        -0.43917
O         46.18474        28.94244         1.42158
O         47.17580        43.43168        -0.79263
O         37.13420        40.33173         1.91466
O         45.89424        35.02681         2.05067
O         49.48571        30.22187         0.75092
O         43.46475        46.76196         0.47128
O         33.63923        35.81721         2.66689
O         47.31015        32.69249        -2.02791
H         46.36442        32.86750        -2.25483
O         32.45625        37.13348        -0.54587
H         33.31768        36.90630        -0.97617
O         50.48939        35.04899         1.36583
H         51.05873        35.51337         2.02358
O         38.52101        43.19397         1.44738
H         38.63119        42.53600         2.16954
O         45.34035        37.42703         2.92603
H         44.51228        37.00638         3.25699
O         44.73261        33.05497        -1.64211
H         43.92323        32.50184        -1.69982
O         48.33769        35.49261         2.07644
H         47.55622        35.37555         2.66626
O         36.92776        37.81573         2.32866
H         37.25455        38.66363         2.71600
O         34.11854        38.51488         2.42310
H         34.07891        37.69647         2.97568
O         38.09507        41.03808        -1.54346
H         37.84443        41.68607        -2.25470
O         37.32032        37.57979        -1.33688
H         37.32170        38.53244        -1.57509
O         43.65693        27.52576        -1.99612
H         44.45224        27.45464        -2.57746
O         38.85983        31.06474         2.00092
H         39.55108        30.48589         2.40297
O         45.78856        41.32833        -0.56863
H         45.66015        42.10443        -1.16960
O         45.14644        45.23348         1.85250
H         45.30339        44.49263         2.49090
O         34.42781        33.38695         2.92479
H         34.04964        34.13006         3.45097
O         43.31289        35.13172         2.24267
H         44.00157        34.67464         2.77703
O         43.31251        26.76225         1.57608
H         43.23549        25.78035         1.58495
O         34.83261        44.95326        -0.24730
H         35.58002        45.52978         0.01756
O         31.09239        31.57054        -1.22060
H         30.21402        31.27904        -1.53908
O         40.34876        31.45263        -1.39037
H         39.98233        32.25172        -1.84084
O         34.73692        33.30022        -0.71265
H         35.37517        32.91125        -1.34828
O         36.49038        42.75092        -2.68728
H         36.46993        43.40970        -3.41442
O         45.09617        40.46315         2.89140
H         45.27278        39.58471         3.30330
O         50.38359        31.49079        -3.51688
H         50.35964        32.44849        -3.72192
O         50.56353        37.96691        -0.87399
H         49.87308        37.55747        -1.45992
O         36.95631        35.18883         2.44338
H         37.81215        34.73073         2.58785
O         36.15752        43.04843         0.91897
H         36.00775        42.35250         1.60858
O         48.55564        36.34385        -1.47741
H         48.72357        35.79282        -2.27903
O         39.18796        27.49594        -1.84779
H         39.93838        27.09337        -2.33355
O         44.51617        43.55093        -1.34299
H         43.71093        43.17018        -1.77437
O         35.65563        28.76234         1.39541
H         35.04341        29.40592         1.84483
O         40.38389        35.76813        -1.93978
H         39.97032        36.53713        -2.40516
O         42.12159        45.83742        -2.54301
H         41.73454        46.34501        -3.28892
O         35.45940        30.33015        -2.18094
H         36.33075        30.07685        -2.55754
O         41.51417        24.48066         1.28588
H         40.72144        24.87228         1.72629
O         33.47683        42.82243         0.60514
H         34.29313        43.22272         0.99508
O         31.64354        38.44958         2.76645
H         30.97771        39.11843         3.02845
O         51.62849        37.08377         2.51260
H         52.32597        37.46038         3.08863
O         50.70480        41.95717         3.14427
H         51.07464        41.14980         3.57695
O         34.93649        31.13579         2.22945
H         35.61838        31.55297         2.79974
O         41.59811        38.12355        -2.28131
H         42.00790        38.98988        -2.02559
O         41.24819        43.52815         1.73163
H         41.19973        42.96282         2.53201
O         34.38368        38.88689        -1.18633
H         34.60554        39.69340        -1.71354
O         45.81569        26.43079         0.68273
H         46.43695        26.93403         1.25621
O         43.30171        36.15068        -1.25533
H         42.60209        36.58532        -1.80485
O         39.84898        26.65718         1.67113
H         40.36253        27.17353         2.33563
O         32.76210        40.77653        -2.26120
H         32.21224        39.97361        -2.38769
O         49.23026        40.14453        -0.45294
H         49.88440        39.56703        -0.92824
O         46.12928        42.96837         2.72171
H         45.91703        42.13986         3.22030
O         34.09801        42.92710        -3.13653
H         33.41243        42.23835        -3.29307
O         48.03479        32.30952         1.49667
H         48.46691        31.56144         1.96505
O         39.92328        33.27713         1.85908
H         40.71759        32.97785         2.35018
O         37.26244        26.43047         1.02199
H         36.46993        26.83131         1.44122
O         38.96814        33.62731        -1.67527
H         39.48720        34.38180        -2.07271
O         37.70276        31.31589        -1.50637
H         38.08923        32.11031        -1.94616
O         51.32440        31.82398         0.15041
H         51.19121        30.97747         0.63859
O         34.69029        40.97601         1.81295
H         34.57934        40.25512         2.47835
O         41.83067        43.01532        -1.80252
H         41.77335        43.69809        -2.51166
O         44.19384        30.97769         2.15883
H         44.92721        30.35847         2.38591
