         324
 CSIRO Nanostructure Databank - Neutral Graphene Oxide Data Set
C          1.61863         1.42392        -1.11911
C          1.42137         2.50850        -0.22438
C          2.82750         1.25195        -1.74715
C          2.41245         3.45839        -0.07499
C          1.03138         6.53559         0.59300
C          0.98753         7.89531         0.37115
C          2.24607         5.80338         0.46657
C          2.16679         8.64359         0.08538
C          1.00514        10.85534         0.14754
C          1.03587        12.23194         0.12121
C          2.18087        10.04664         0.08734
C          2.25178        12.99372         0.11079
C          1.11559        15.20030        -0.25451
C          1.16377        16.49637        -0.65129
C          2.29515        14.36439        -0.11705
C          2.43680        17.11346        -1.16998
C          2.51115        18.62188        -1.12081
C          3.93038         2.14901        -1.53323
C          3.65590         3.39054        -0.79950
C          5.20480         1.63492        -1.84760
C          4.56457         4.45972        -0.84217
C          3.44037         6.42853         0.12951
C          3.42212         7.87955        -0.14139
C          4.67120         5.73529        -0.18429
C          4.76379         8.56894        -0.27037
C          3.48342        10.73991         0.22506
C          3.51581        12.24343         0.32006
C          4.77277        10.09417        -0.27807
C          4.82288        12.92037         0.09889
C          3.59977        15.07159        -0.07992
C          3.65043        16.50877        -0.49788
C          4.86468        14.30842        -0.10033
C          4.95642        17.12693        -0.79906
C          3.70637        19.24671        -1.13728
C          4.97817        18.52146        -1.07423
C          6.45490         2.17948        -1.42631
C          6.53097         3.60473        -1.19213
C          7.57456         1.41436        -1.08700
C          7.38426         4.21272        -0.32571
C          5.94547         6.38775        -0.11366
C          6.01194         7.79858         0.02265
C          7.18640         5.58329         0.31465
C          7.23493         8.46780         0.27949
C          5.95635        10.71615         0.42975
C          6.01822        12.18623         0.24316
C          7.22838         9.92664         0.54510
C          7.26909        12.83152         0.17937
C          6.10762        14.95458        -0.34304
C          6.15314        16.38517        -0.67111
C          7.29521        14.20116        -0.20709
C          7.38008        17.06327        -0.83396
C          6.19888        19.18935        -1.16626
C          7.43132        18.48718        -1.00802
C          8.66679         2.01502        -0.40375
C          8.50948         3.38906         0.15076
C          9.87976         1.34540        -0.26210
C          9.71611         4.14496         0.64379
C          8.51861         6.33950         0.33186
C          8.49344         7.78574         0.36388
C          9.71792         5.63801         0.53039
C          9.70729         8.52062         0.50643
C          8.49830        10.68173         0.52934
C          8.48566        12.06360         0.40229
C          9.73763         9.93740         0.60515
C          9.75808        12.79478         0.52071
C          8.58493        14.81752        -0.56308
C          8.62972        16.29316        -0.89397
C          9.82061        14.22034         0.02184
C          9.90448        16.99686        -0.57467
C          8.66647        19.17105        -1.04117
C          9.90945        18.53194        -0.63419
C         11.05974         1.98940         0.19305
C         11.00751         3.38497         0.69458
C         12.29586         1.36213         0.07720
C         12.28231         4.16899         0.74531
C         10.98961         6.32085         0.57101
C         11.02544         7.80959         0.28730
C         12.20811         5.64321         0.65390
C         12.20540         8.52304         0.93243
C         10.98227        10.64174         0.75599
C         11.02164        12.05184         0.65982
C         12.19975         9.89317         1.04963
C         12.23055        12.80135         0.72120
C         11.15310        14.77816        -0.34580
C         11.21013        16.28371        -0.70593
C         12.33023        14.13145         0.24968
C         12.46753        17.01432        -0.53163
C         11.22078        19.15905        -0.71334
C         12.43068        18.47388        -0.51865
C         13.53091         2.06634         0.15893
C         13.54326         3.50428         0.36244
C         14.74306         1.38522         0.00086
C         14.70421         4.24306         0.28766
C         13.47022         6.32879         0.71732
C         13.43073         7.73269         1.17315
C         14.69577         5.65932         0.58963
C         14.75247         8.44375         1.39192
C         13.41083        10.65510         1.48256
C         13.42650        12.15065         1.29604
C         14.75103         9.93697         1.53917
C         14.74844        12.87748         1.24638
C         13.56493        14.84590         0.20077
C         13.62208        16.20332        -0.29350
C         14.78123        14.23542         0.63656
C         14.92013        16.75615        -0.45386
C         13.57466        19.30809        -0.20895
C         14.89114        18.91735        -0.43766
C         15.97638         2.07500        -0.03851
C         15.96395         3.58069        -0.20897
C         17.18096         1.38606        -0.07494
C         17.22985         4.23926         0.27794
C         15.96805         6.37108         0.70491
C         15.99883         7.75733         0.99862
C         17.20559         5.67074         0.54208
C         17.21177         8.49854         0.99246
C         16.01803        10.67373         1.28393
C         16.02337        12.10058         1.26025
C         17.22058         9.96099         1.11257
C         17.23040        12.80349         1.19523
C         15.98623        14.94585         0.67086
C         16.07835        16.27939         0.17288
C         17.19582        14.29017         1.20560
C         17.29593        17.08735         0.25588
C         16.10834        19.36506         0.09750
C         17.29107        18.54637         0.12260
C         18.43238         2.06722         0.03532
C         18.39633         3.50312         0.28619
C         19.64559         1.38206        -0.06853
C         19.69532         4.18035         0.44684
C         18.41747         6.38969         0.67628
C         18.42351         7.79222         0.83167
C         19.70900         5.66200         0.59211
C         19.70622         8.53289         0.76383
C         18.46082        10.68406         1.02578
C         18.47722        12.11116         1.10510
C         19.70985        10.00206         0.93864
C         19.72271        12.81545         1.04405
C         18.47721        15.06389         1.15478
C         18.49550        16.45152         0.61876
C         19.75736        14.28463         1.22360
C         19.75358        17.13450         0.53501
C         18.51470        19.22888         0.21039
C         19.75655        18.55592         0.29413
C         20.91187         1.98825         0.20583
C         20.89178         3.34910         0.78600
C         22.13010         1.34338         0.08194
C         22.19351         4.04411         1.10633
C         20.92448         6.31312         1.18236
C         20.99006         7.78672         0.94970
C         22.19114         5.53303         1.36435
C         22.22357         8.52325         1.37233
C         20.92263        10.69833         0.91890
C         20.94285        12.12497         0.91312
C         22.21703         9.99775         1.15417
C         22.21273        12.80803         0.66784
C         21.04307        15.01111         0.96274
C         20.98912        16.45333         0.62848
C         22.24575        14.24115         0.57738
C         22.20734        17.13098         0.39821
C         20.97581        19.24891         0.17732
C         22.20905        18.56084         0.19437
C         23.38455         2.03963         0.23058
C         23.42886         3.40191         0.63049
C         24.58985         1.38432        -0.13028
C         24.62748         4.16419         0.47046
C         23.51673         6.25753         1.32196
C         23.52432         7.77302         1.32430
C         24.69042         5.56614         0.75045
C         24.72640         8.49021         0.85736
C         23.48424        10.66574         0.77124
C         23.40012        12.05842         0.47155
C         24.68533         9.92752         0.65751
C         24.58738        12.72724        -0.08666
C         23.41245        14.96313         0.31124
C         23.43414        16.40217         0.31780
C         24.62464        14.24793        -0.11856
C         24.66005        17.09490         0.11445
C         23.43267        19.23161        -0.01467
C         24.65918        18.53166        -0.05269
C         25.79554         2.08731        -0.25519
C         25.79238         3.51281        -0.02792
C         27.01384         1.41484        -0.60075
C         26.96826         4.27124        -0.25226
C         25.88524         6.30448         0.57021
C         25.89299         7.75734         0.68078
C         27.04893         5.62494         0.09019
C         27.18086         8.48542         0.62386
C         25.92729        10.59150         0.31484
C         25.88727        11.99209        -0.11439
C         27.16190         9.94537         0.38532
C         27.20412        12.79460        -0.02615
C         25.92779        14.93546         0.03955
C         25.89823        16.39281         0.09165
C         27.11640        14.25410         0.15710
C         27.10644        17.10047        -0.08213
C         25.87087        19.20458        -0.33193
C         27.09592        18.50577        -0.38950
C         28.16838         2.12485        -0.93190
C         28.07119         3.59862        -0.98009
C         29.38678         1.52697        -1.33907
C         29.26404         4.39179        -1.41315
C         28.43776         6.25079         0.12304
C         28.46591         7.74799         0.37859
C         29.30089         5.85342        -1.06276
C         29.67516         8.52462         0.00148
C         28.41096        10.67482         0.35642
C         28.41625        12.05661         0.35187
C         29.74320         9.94280         0.55225
C         29.68006        12.80759         0.58074
C         28.31518        15.05379         0.65399
C         28.35152        16.39000        -0.05454
C         29.65299        14.30395         0.66893
C         29.50421        16.97025        -0.53458
C         28.31337        19.12318        -0.76179
C         29.50118        18.37210        -0.89702
C         30.51914         2.28204        -1.68351
C         30.52705         3.68255        -1.67359
C         31.70070         4.47397        -1.91905
C         30.55645         6.61585        -1.32854
C         30.72199         7.95471        -0.68006
C         31.71903         5.83619        -1.81492
C         31.93019         8.71551        -0.91339
C         30.91219        10.74453         0.00340
C         30.92969        12.11374         0.17599
C         32.01996        10.03277        -0.57626
C         32.12220        12.92500         0.03715
C         30.92724        15.13076         0.43730
C         30.72132        16.10020        -0.76319
C         32.14053        14.26385         0.21384
C         31.94865        16.88725        -1.12068
C         30.70725        18.97612        -1.31823
C         31.90510        18.22589        -1.40423
O         22.15393         9.40088         2.52658
O         21.42059         3.34779         2.14359
O          5.54564         4.35521        -1.84357
O          9.68112        13.96319         1.44040
O         14.04743         7.81609         2.50661
O         13.95144        12.84742         2.47477
O         20.60598        14.71136         2.34524
O          6.34335        10.22087         1.72507
O          9.78609        17.73542         0.64415
O         11.69328         3.59132         1.97301
O         15.03523        17.82775        -1.33086
O         20.55504         8.13299        -0.39916
O          8.77063         3.54257         1.60043
O          3.56346        11.39696         1.52720
O         23.79890         7.00015         2.54290
O         14.02267        10.30726         2.75118
O         29.76787        13.50193         1.89497
O         28.05357         8.04854         1.76831
O          4.05851         8.11758        -1.47763
O         28.19011         4.09464        -2.37392
O         19.98634         5.06055        -0.72010
O         29.35910         6.69741        -2.23361
O          2.16463         4.46123         0.86426
O         17.71792        14.93745         2.41478
O         24.36988        13.46408        -1.33275
O          8.68962        15.27576        -1.94369
O          3.54217        16.17720         0.91700
O         26.66466        12.29079        -1.30055
O         11.27124        15.22985        -1.71795
O         21.34525         5.89666         2.50229
O         15.95320         3.80699        -1.66681
H         16.79147         3.44323        -2.02462
O          6.84757         5.32744         1.71458
H          7.54580         4.72088         2.07721
O          2.55118        16.72867        -2.58032
H          1.81915        17.15789        -3.07047
O         29.10786         5.62914         1.25984
H         28.75501         6.06754         2.06746
O         28.01508        15.38899         2.04141
H         28.38806        14.65942         2.58986
O         30.41856        15.21859        -1.88935
H         30.30470        15.77485        -2.68850
O         11.27547         7.89807        -1.17131
H         11.14186         8.83293        -1.43760
O         31.14375        15.94870         1.59969
H         31.03704        15.37008         2.38504
O          4.92761        10.51015        -1.66206
H          4.47984         9.82410        -2.21287
O         29.99831         9.86590         1.98275
H         29.31034         9.26348         2.35886
H          0.80832         0.69802        -1.27189
H          0.48234         2.60708         0.33383
H          2.99538         0.36597        -2.37591
H          0.12171         5.99338         0.88171
H          0.03314         8.42292         0.49867
H          0.02290        10.36251         0.13225
H          0.07809        12.76982         0.08392
H          0.13937        14.76536         0.00792
H          0.23386        17.08319        -0.71124
H          1.57686        19.20346        -1.16150
H          5.22177         0.59257        -2.20594
H          3.75361        20.34600        -1.17447
H          7.60424         0.33735        -1.30645
H          6.21878        20.27884        -1.31546
H          9.96925         0.32550        -0.66540
H          8.69160        20.22779        -1.34355
H         12.32548         0.30007        -0.20943
H         11.25551        20.25024        -0.84573
H         14.74268         0.28566        -0.04535
H         13.37698        20.27158         0.28279
H         17.17627         0.28601        -0.11046
H         16.18097        20.37997         0.51641
H         19.62622         0.31553        -0.33970
H         18.51510        20.32630         0.13333
H         22.15896         0.30227        -0.27335
H         20.96595        20.33768         0.02119
H         24.56382         0.30963        -0.36370
H         23.42925        20.32048        -0.17182
H         27.01549         0.31526        -0.64501
H         25.85195        20.28617        -0.53218
H         29.45284         0.42933        -1.36228
H         28.32916        20.20016        -0.98595
H         31.44709         1.75084        -1.94359
H         32.62199         3.94806        -2.21309
H         32.66015         6.36539        -2.02145
H         32.78180         8.22876        -1.40647
H         32.93694        10.58312        -0.82929
H         33.07958        12.40981        -0.12974
H         33.11029        14.78368         0.20114
H         32.89494        16.34057        -1.24018
H         30.71717        20.04670        -1.56632
H         32.82731        18.74245        -1.70888
