         334
 CSIRO Nanostructure Databank - Neutral Graphene Oxide Data Set
C         30.31691        57.09223         0.58431
C         30.29483        58.51084         0.77364
C         29.09121        59.25648         0.69190
C         30.30408        61.32200         1.09782
C         29.10805        60.64017         0.86597
C         32.82644        52.87780         0.34079
C         32.76272        54.24592         0.23148
C         31.53225        54.95892         0.35004
C         32.78666        57.05001         0.73516
C         31.51569        56.35949         0.52267
C         32.73671        58.43082         1.24254
C         31.50126        59.20323         1.06399
C         32.78337        61.31573         1.28429
C         31.52892        60.61521         1.19368
C         35.29179        48.66924        -0.73220
C         35.25340        50.07557        -0.42623
C         34.08964        50.76021        -0.23894
C         35.33029        52.92368         0.02190
C         34.11676        52.11582         0.41888
C         35.28885        54.32480         0.02043
C         33.98271        55.05958        -0.14141
C         35.25207        57.15415         0.60147
C         33.99294        56.43505         0.49016
C         35.27930        58.48168         0.98452
C         34.05197        59.18928         1.37149
C         35.23928        61.36571         1.07571
C         34.01480        60.66634         1.26314
C         37.77988        44.40666        -0.51588
C         37.77381        45.78261        -0.77263
C         36.43996        46.46259        -0.97779
C         37.73990        48.63122        -0.80058
C         36.48064        47.95771        -0.77889
C         37.70611        50.12860        -0.94654
C         36.58169        50.72501        -0.09308
C         37.74965        52.93803        -0.33324
C         36.55156        52.23454        -0.16810
C         37.74009        54.37995        -0.24309
C         36.48935        55.07567        -0.03777
C         37.68818        57.22965         0.10810
C         36.49097        56.48548         0.20465
C         37.74121        58.58705         0.48054
C         36.57251        59.21873         1.19157
C         37.67857        61.42176         0.78835
C         36.47949        60.71537         0.96163
C         40.31594        40.37327         0.61903
C         40.29043        41.66803         0.12249
C         39.04964        42.36627        -0.01844
C         40.21313        44.34914        -1.04850
C         38.98941        43.67234        -0.47240
C         40.29824        45.81746        -0.60863
C         38.97704        46.52288        -0.83135
C         40.16683        48.70866        -1.37878
C         38.95958        47.93868        -0.87908
C         40.23241        50.14722        -0.92068
C         39.02251        50.82292        -0.70319
C         40.20689        52.94459        -0.68467
C         38.99859        52.22823        -0.54562
C         40.15246        54.40417        -0.73905
C         38.91323        55.10394        -0.41654
C         40.20246        57.25068        -0.07720
C         38.90555        56.60600        -0.53147
C         40.19183        58.65139         0.21947
C         38.94398        59.32635         0.42487
C         40.15338        61.45791         0.65478
C         38.93636        60.75592         0.64749
C         42.85442        36.45386         2.21298
C         42.79034        37.67634         1.53014
C         41.56553        38.38093         1.35273
C         42.78663        40.35461         0.54095
C         41.54477        39.67289         0.82170
C         42.79603        41.66657         0.01964
C         41.53715        42.34959        -0.22632
C         42.71634        44.32898        -1.17991
C         41.49648        43.62791        -0.74528
C         42.68052        45.80615        -1.35899
C         41.51357        46.52754        -1.20499
C         42.68348        48.69210        -1.34893
C         41.49475        47.97585        -1.29369
C         42.71665        50.13946        -1.11441
C         41.45442        50.85742        -0.95748
C         42.68139        53.02505        -0.72038
C         41.44429        52.27895        -0.84923
C         42.67740        54.35836        -0.37530
C         41.46770        55.15737        -0.55896
C         42.64805        57.22914         0.15721
C         41.40763        56.56159        -0.09800
C         42.64700        58.65198         0.29585
C         41.40949        59.35627         0.35088
C         42.63329        61.47096         0.60833
C         41.40515        60.78882         0.54102
C         45.40719        34.06401         3.58492
C         44.18424        34.68567         3.35243
C         45.30453        36.30668         1.91749
C         44.10757        35.81820         2.50575
C         45.24364        37.45317         0.94003
C         44.01693        38.31471         1.10350
C         45.30488        40.43058         0.74975
C         44.01864        39.64497         0.72871
C         45.27274        41.70439        -0.05190
C         44.04421        42.30888        -0.29930
C         45.26300        44.50109        -0.78744
C         44.03259        43.62951        -0.97506
C         45.26243        45.69851        -1.76028
C         43.93449        46.47374        -1.77406
C         45.24988        48.70006        -1.51934
C         43.93910        47.99378        -1.71792
C         45.21682        50.13189        -1.11105
C         43.90712        50.82232        -0.98646
C         45.06338        52.80818         0.09862
C         44.00429        52.32841        -0.93942
C         45.13247        54.31746         0.13909
C         43.81790        55.00901         0.39165
C         45.08923        57.18809         0.28172
C         43.86295        56.50509         0.20711
C         45.10066        58.62202         0.36946
C         43.87761        59.34624         0.40383
C         45.11100        61.45657         0.58818
C         43.87729        60.78326         0.53575
C         46.57050        34.51839         2.95092
C         47.70538        36.02553         1.24099
C         46.52023        35.63335         2.09811
C         47.75584        37.51051         0.96230
C         46.53477        38.23051         0.86394
C         47.75064        40.24353         0.20400
C         46.53938        39.59194         0.55458
C         47.72404        41.58279        -0.30665
C         46.52211        42.30976        -0.43701
C         47.72873        44.32722        -1.20739
C         46.55187        43.69192        -0.87929
C         47.74527        45.78387        -1.47460
C         46.47658        46.54834        -1.40808
C         47.71211        48.64241        -0.94908
C         46.48076        47.90352        -1.25540
C         47.67109        49.99251        -0.57333
C         46.35505        50.63344        -0.22435
C         47.58063        52.83245        -0.15341
C         46.39102        52.13849        -0.14571
C         47.58241        54.34102        -0.36216
C         46.29990        55.01332         0.06816
C         47.54740        57.14425         0.36660
C         46.32895        56.46214         0.24039
C         47.56028        58.57944         0.49196
C         46.33714        59.31058         0.46845
C         47.57620        61.42620         0.60921
C         46.34357        60.75061         0.55490
C         48.95879        38.16187         0.72782
C         50.21459        40.17253         0.04060
C         48.98494        39.51740         0.30060
C         50.25678        41.48820        -0.44218
C         48.98362        42.14387        -0.83244
C         50.34969        44.32323        -1.46394
C         49.00357        43.58029        -1.32306
C         50.28939        45.77160        -0.99967
C         49.04729        46.52959        -1.29320
C         50.12682        48.62086        -0.50653
C         48.96912        47.95731        -0.91801
C         50.12822        50.02091        -0.29445
C         48.87499        50.72566        -0.32002
C         50.05156        52.84636         0.39556
C         48.82911        52.12308        -0.11618
C         50.12073        54.29841        -0.09222
C         48.82718        55.03925         0.13976
C         50.02603        57.13473         0.65302
C         48.80672        56.40444         0.39642
C         50.00587        58.52695         0.71056
C         48.79084        59.27350         0.62234
C         50.02006        61.43865         0.66322
C         48.81137        60.72378         0.65207
C         51.45903        42.20506        -0.51711
C         52.67823        44.29574        -0.52970
C         51.51229        43.59381        -0.79426
C         52.70501        45.73453        -0.49596
C         51.40980        46.42326        -0.58947
C         52.63347        48.59417        -0.64015
C         51.37908        47.86382        -0.13873
C         52.61743        50.06479        -0.26943
C         51.37140        50.73037        -0.11345
C         52.55768        52.84245         0.26236
C         51.36022        52.13254         0.12740
C         52.51498        54.27632         0.56089
C         51.34480        54.96807         0.49290
C         52.56759        57.09579         0.76003
C         51.27272        56.37074         1.05655
C         52.51587        58.53892         0.49231
C         51.27684        59.26009         0.91255
C         52.58448        61.46372         0.58619
C         51.30590        60.78416         0.85014
C         53.87741        46.42867        -0.33024
C         55.15889        48.61504        -0.67710
C         53.91798        47.91854        -0.10816
C         55.10339        50.09861        -0.36836
C         53.82888        50.76659        -0.16151
C         55.03790        52.87756         0.33712
C         53.81879        52.16856         0.15769
C         55.05164        54.26954         0.67589
C         53.76425        54.95263         1.08934
C         55.02613        57.14805         0.69538
C         53.76658        56.43656         0.79448
C         55.05126        58.55264         0.55507
C         53.79887        59.30322         0.36790
C         55.04782        61.43554         0.44648
C         53.79594        60.78303         0.52060
C         56.26885        50.80722        -0.29075
C         57.49536        52.86342         0.23617
C         56.29646        52.20372         0.08127
C         57.55731        54.23586         0.83152
C         56.24731        54.98059         0.73518
C         57.48514        57.12780         0.72798
C         56.26403        56.42439         0.77158
C         57.50244        58.55869         0.66714
C         56.26923        59.26993         0.56216
C         57.50243        61.36497         0.24167
C         56.27077        60.71110         0.41752
C         58.73210        55.03259         0.36264
C         59.95479        57.13891         0.44108
C         58.74709        56.42095         0.49924
C         60.02808        58.55720         0.90631
C         58.73086        59.26329         0.60342
C         59.96055        61.29312        -0.03616
C         58.73126        60.65315         0.28307
C         61.21249        59.23582         0.28652
C         61.15440        60.54717        -0.12394
O         43.82747        47.27149        -2.99324
O         45.55259        49.78519        -2.48319
O         33.37816        58.63603         2.55031
O         39.73381        48.78259        -2.74706
O         40.86873        54.99687        -1.89654
O         43.42443        43.63474        -2.29101
O         48.91564        42.47047        -2.27694
O         48.54378        46.20257        -2.63192
O         53.02128        58.90007        -0.83743
O         51.38043        59.99325         2.14303
O         50.67152        44.34995        -2.87411
H         50.23877        43.56553        -3.28156
O         43.45994        54.81935         1.80271
H         43.71324        53.89150         2.03244
O         33.85467        55.28298        -1.58859
H         34.66072        55.75544        -1.88766
O         45.40317        40.90648         2.15591
H         45.35824        40.11472         2.73459
O         44.51352        52.75833        -2.22660
H         44.01743        52.29276        -2.93213
O         37.43050        50.34140        -2.35690
H         38.18516        49.88145        -2.82801
O         57.78230        54.02660         2.29529
H         56.97345        53.59817         2.64926
O         45.48585        45.17808        -3.07653
H         45.16956        45.85543        -3.71537
O         45.18637        45.06348         0.55269
H         45.19118        44.32067         1.19405
O         54.03488        48.13780         1.32141
H         53.16798        47.89664         1.72796
O         34.33751        51.81515         1.86429
H         34.23982        52.65994         2.35505
O         60.21489        58.56455         2.38279
H         60.19440        59.50101         2.67311
O         36.87385        59.06668         2.62834
H         37.69138        59.57878         2.80757
O         53.69214        54.83657         2.55959
H         53.63079        53.88119         2.77428
O         44.57767        52.37777         1.40905
H         44.83955        51.42666         1.52208
O         47.56262        35.34920        -0.02601
H         46.75091        35.71915        -0.45124
O         50.32167        54.22446        -1.54203
H         50.53645        55.12504        -1.86558
O         49.90319        52.90971         1.84926
H         49.96335        51.99569         2.19723
O         40.06220        44.36706        -2.49221
H         40.29339        43.48230        -2.84309
O         45.99619        50.11269         1.12533
H         46.75210        50.30654         1.72066
O         51.18597        56.22620         2.50792
H         52.00993        55.76049         2.79862
O         36.86893        50.38618         1.29326
H         36.11748        50.74533         1.82420
O         52.56858        48.48837        -2.07416
H         53.48562        48.54378        -2.43703
O         47.61647        54.50694        -1.81967
H         48.47961        54.13738        -2.12671
O         51.39434        47.85143         1.33081
H         50.66600        47.26983         1.63405
O         38.80842        56.87895        -1.97532
H         39.55385        56.38093        -2.39327
O         40.52182        45.79880         0.83453
H         40.48242        46.72170         1.16219
O         55.24951        48.40609        -2.09668
H         55.95389        48.98683        -2.45097
O         45.10879        36.82436        -0.39603
H         44.25791        36.33498        -0.39789
O         35.42469        45.87010        -0.15656
H         35.64069        46.05592         0.78008
H         29.36272        56.56746         0.42625
H         28.14519        58.73595         0.48593
H         30.30313        62.41667         1.19935
H         28.16757        61.20539         0.80087
H         31.90291        52.31617         0.55572
H         30.58532        54.39893         0.38544
H         32.76150        62.41587         1.24607
H         34.34047        48.12323        -0.82945
H         33.11790        50.27880        -0.43077
H         35.20739        62.46337         0.98771
H         36.82417        43.90180        -0.30763
H         36.12951        46.26799        -2.04311
H         37.65613        62.52203         0.75691
H         39.37013        39.87025         0.86986
H         38.12807        41.86637         0.31838
H         40.14318        62.54947         0.79344
H         41.92918        36.00682         2.60550
H         40.62197        37.89909         1.64869
H         42.63639        62.56450         0.73179
H         45.45676        33.18912         4.24836
H         43.26821        34.30045         3.82273
H         45.12726        62.55393         0.66692
H         47.52293        33.99058         3.10278
H         48.66324        35.67564         1.70073
H         47.58809        62.52519         0.65555
H         49.90760        37.61226         0.81788
H         51.15778        39.64767         0.25345
H         49.99990        62.52574         0.49371
H         52.38357        41.70772        -0.18297
H         53.58090        43.74721        -0.21703
H         52.57946        62.56286         0.52749
H         54.82418        45.87057        -0.25674
H         56.07748        48.17822        -0.19162
H         55.08088        62.53517         0.43553
H         57.23219        50.29790        -0.45157
H         58.43989        52.32158         0.07602
H         57.51761        62.44669         0.04218
H         59.66336        54.49929         0.11551
H         60.87972        56.61719         0.15214
H         59.95816        62.35827        -0.30688
H         62.16376        58.68552         0.24286
H         62.06085        61.03948        -0.50663
