         349
 CSIRO Nanostructure Databank - Neutral Graphene Oxide Data Set
C          1.18456         3.73231         1.63229
C          0.01979         4.31958         1.26957
C          0.78684         6.57943         0.72321
C         -0.05993         5.54818         0.46571
C          1.04782         7.85574         0.04396
C         -0.09584         8.51942        -0.47645
C          1.16051        10.56914        -0.75432
C         -0.05561         9.84746        -0.83497
C          1.20476        11.99048        -1.01204
C         -0.00024        12.75301        -1.23614
C          1.20932        14.89237        -1.23070
C          0.00564        14.12473        -1.29062
C          1.20877        16.29743        -1.22273
C         -0.01700        17.06780        -1.31519
C          1.25692        19.17484        -1.44637
C         -0.00521        18.41721        -1.40656
C          1.24762        20.70076        -1.24704
C         -0.00015        21.47055        -1.03228
C          1.20016        23.44586        -0.11880
C         -0.02712        22.72587        -0.54360
C          1.21173        24.93638         0.04115
C         -0.01943        25.65422         0.31797
C          1.17960        27.83765         0.19508
C         -0.04470        27.00029         0.46945
C          1.21038        29.16153         0.90968
C          3.79544         3.57704         1.42946
C          2.49456         4.24642         1.08384
C          3.72232         6.39825         0.79883
C          2.66974         5.71863         1.32014
C          3.63377         7.90712         0.61494
C          2.31293         8.48576         0.02195
C          3.59712        10.57026        -0.51536
C          2.35939         9.85566        -0.42691
C          3.63649        11.95943        -0.73937
C          2.42563        12.67526        -0.96785
C          3.70055        14.81850        -0.79235
C          2.50616        14.12582        -1.38866
C          3.61441        16.27098        -0.58997
C          2.43782        17.03346        -1.05125
C          3.73826        19.16389        -0.95594
C          2.50083        18.43229        -1.12225
C          3.70694        20.61953        -0.89795
C          2.52068        21.32218        -0.84918
C          3.74933        23.52575        -0.49553
C          2.49581        22.72453        -0.35060
C          3.71476        24.97387        -0.13261
C          2.41260        25.63078         0.12599
C          3.64465        27.68307         0.69869
C          2.44799        27.04483         0.39299
C          3.65931        29.08596         1.06381
C          2.37492        29.75362         1.24074
C          6.22576         3.53167         1.17135
C          4.96828         4.24603         1.15358
C          6.16800         6.31948         0.48068
C          4.97831         5.66067         0.72906
C          6.17220         7.69533         0.02373
C          4.85581         8.35857        -0.18161
C          6.13213        10.52090        -0.63386
C          4.85319         9.80910        -0.60134
C          6.12692        11.94908        -0.62126
C          4.90128        12.66547        -0.71068
C          6.16605        14.78069        -0.46623
C          4.89945        14.10016        -0.62958
C          6.16390        16.24625        -0.22333
C          4.89575        17.03948        -0.35270
C          6.22512        19.13328        -0.63841
C          4.95222        18.47347        -0.70615
C          6.28840        20.60495        -0.76541
C          4.99127        21.36794        -0.82867
C          6.19662        23.43412        -0.11018
C          5.02598        22.78495        -0.41232
C          6.27267        24.94502         0.00212
C          4.95346        25.61691         0.31655
C          6.10909        27.64925         1.02637
C          4.90829        26.95558         0.70891
C          6.11684        29.04378         1.24868
C          4.85391        29.73654         1.29777
C          8.62069         3.36919         0.64137
C          7.41696         4.13186         0.83489
C          8.55493         6.17102        -0.13613
C          7.49297         5.65287         0.80261
C          8.70085         7.69227        -0.21478
C          7.33594         8.36007        -0.34734
C          8.57733        10.50035        -0.59662
C          7.33224         9.78610        -0.59903
C          8.57432        11.89551        -0.42513
C          7.37201        12.65031        -0.51028
C          8.68643        14.81544        -0.77766
C          7.37372        14.09014        -0.48758
C          8.73629        16.28425        -0.40097
C          7.44866        16.99222        -0.23825
C          8.66608        19.14014        -0.22532
C          7.42330        18.45359        -0.41636
C          8.65476        20.55125        -0.02320
C          7.46822        21.30490        -0.22202
C          8.54864        23.31024         0.67599
C          7.43005        22.69166         0.03024
C          8.58122        24.73805         1.02670
C          7.43100        25.46423         0.84094
C          8.58697        27.65066         0.81488
C          7.36466        26.88739         1.35583
C          8.59834        29.09839         1.27992
C          7.34861        29.73108         1.45211
C         10.99996         3.38967        -0.15334
C          9.67029         3.93745        -0.07565
C         11.23328         6.25866        -1.16503
C          9.39228         5.24307        -0.66704
C         11.09951         7.64461        -1.07214
C          9.73538         8.31910        -1.21880
C         11.02156        10.48598        -0.79185
C          9.83398         9.80451        -0.83329
C         11.16168        11.80429        -0.05566
C          9.84235        12.58306        -0.09254
C         11.25418        14.65373        -0.57305
C          9.90929        14.06613        -0.27593
C         11.17015        16.36079         0.33806
C          9.89247        16.98756        -0.18773
C         11.10735        19.17095         0.12448
C          9.88630        18.44490        -0.06563
C         11.10341        20.53392         0.50288
C          9.80367        21.16562         0.54158
C         11.39569        23.45724         1.43257
C          9.55755        22.44291         1.09101
C         11.23970        24.80018         1.18492
C          9.89373        25.45020         1.36629
C         11.13623        27.69208         0.75883
C          9.88340        26.94280         1.18395
C         11.09797        29.14976         1.19407
C          9.81759        29.77172         1.39049
C         13.46134         3.42750        -0.14272
C         12.20962         4.09126        -0.33306
C         13.42134         6.28202        -0.18613
C         12.29325         5.54211        -0.57947
C         13.46148         7.67796        -0.39843
C         12.27687         8.34103        -0.77547
C         13.59655        10.49550        -1.08291
C         12.29059         9.78030        -1.05597
C         13.55434        11.99939        -1.06225
C         12.36802        12.64290        -0.46631
C         13.75313        14.80686        -0.29944
C         12.50670        14.01270         0.10611
C         13.72819        16.26856        -0.28679
C         12.42422        16.96537        -0.23978
C         13.65038        19.18786        -0.18600
C         12.37117        18.48333        -0.24060
C         13.59579        20.65108         0.02887
C         12.36329        21.28998         0.60956
C         13.76149        23.39018         1.00227
C         12.47309        22.64047         0.93562
C         13.73893        24.87667         0.97703
C         12.46022        25.57487         1.01104
C         13.66606        27.70440         1.19797
C         12.41112        26.95531         1.07739
C         13.60344        29.23154         1.21123
C         12.26687        29.87376         1.23730
C         15.91277         3.51501         0.20445
C         14.65550         4.12973         0.11160
C         15.83204         6.36971         0.47733
C         14.54611         5.58488         0.51297
C         15.80507         7.75798         0.40812
C         14.66844         8.45284        -0.12790
C         16.01059        10.53221        -0.28618
C         14.77839         9.79561        -0.50930
C         16.17811        11.85445        -1.04171
C         14.88095        12.70252        -1.02258
C         16.12138        14.87780        -1.03524
C         14.90135        14.13821        -0.64103
C         16.09359        16.37525        -1.00818
C         14.85067        17.04832        -0.56221
C         16.10189        19.23562        -0.52527
C         14.83576        18.50034        -0.41904
C         16.15993        20.61851        -0.25786
C         14.91932        21.36513         0.04412
C         16.36025        23.45093         0.69130
C         15.04380        22.67472         0.75952
C         16.17233        24.92624         0.39009
C         14.92234        25.58558         0.72161
C         16.02327        27.80187         0.48546
C         14.90257        27.03739         0.75604
C         15.95915        29.24642         0.45446
C         14.78794        29.91989         0.69944
C         18.37807         3.59532         0.45664
C         17.10524         4.25437         0.44938
C         18.29646         6.41863         0.72198
C         17.07314         5.67307         0.60490
C         18.27621         7.83198         0.89507
C         16.94785         8.55405         0.97663
C         18.21641        10.73649         0.86112
C         17.04951         9.94866         0.39572
C         18.36882        12.14103         0.39604
C         17.40463        12.69481        -0.60990
C         18.39658        15.00462         0.11833
C         17.43075        14.18520        -0.75142
C         18.68079        16.37619        -0.52287
C         17.41146        17.10565        -1.00146
C         18.40350        19.37733        -1.24290
C         17.29410        18.57777        -0.94152
C         18.49873        20.73664        -0.96401
C         17.36180        21.38352        -0.41578
C         18.55860        23.54661        -0.51242
C         17.41335        22.78515        -0.14946
C         18.48397        24.98368        -0.49084
C         17.27647        25.64355        -0.03445
C         18.05924        27.83548        -0.99967
C         17.33829        27.14240         0.15180
C         17.84549        29.34320        -1.18903
C         17.20666        30.00910         0.04942
C         19.54837         4.30144         0.57834
C         20.73563         6.47388         0.85735
C         19.54177         5.72851         0.71063
C         20.69559         7.84333         1.06541
C         19.46439         8.54212         1.10485
C         20.67850        10.77664         1.40702
C         19.38188        10.00600         1.53086
C         20.77386        12.08050         1.05782
C         19.64683        12.87503         0.60688
C         20.72661        15.06635         1.04323
C         19.65138        14.25495         0.52652
C         20.76475        16.42517         0.88757
C         19.88408        17.11602        -0.02087
C         21.02086        19.41801         0.06738
C         20.21557        18.36489        -0.53146
C         20.85564        20.74835        -0.17136
C         19.85060        21.40153        -1.13787
C         20.84634        23.68715        -1.32862
C         19.75544        22.90606        -0.96373
C         20.74358        25.08658        -1.39355
C         19.56046        25.74091        -1.03537
C         20.39618        28.00525        -1.95686
C         19.32422        27.15879        -1.44086
C         20.23930        29.39262        -2.03655
C         19.08696        30.05266        -1.65034
O          4.65752         8.69439        -1.57630
O         13.83631        28.46072         2.45302
O          4.00167        16.73384         0.76693
O         12.17367        17.68601        -1.47550
O         18.36850        16.50780        -1.92312
O         14.12352        12.58916        -2.28362
O         14.05662        21.43676        -1.14985
O         10.19736         5.55366        -1.77193
O          9.90876        26.38122         2.52598
O         18.04896        13.34554        -1.75366
O          6.82464        16.57823         1.06026
O         13.00634         9.99873        -2.33733
O         15.94776        15.62331        -2.27129
O          1.91823        22.78936         1.00757
O         19.56216        18.73528        -1.72661
O          1.60542         6.43240         1.87486
O         17.72708        11.88096         1.70989
O         18.02814        27.16107        -2.27604
O          3.77033        24.51198        -1.58613
O          9.74356        13.51175         1.04566
O         11.12437        16.16538         1.60892
O         14.53059        22.72423         2.12896
O          5.80436        21.13108        -2.04655
O         10.37799        22.83302         2.14599
O          1.33710        20.09313        -2.58732
O         12.41702        13.96164         1.53418
H         11.95730        14.77629         1.87941
O          8.42671        27.65462        -0.61677
H          9.30027        27.86007        -1.02655
O         16.41526        11.43071        -2.39179
H         16.59316        12.23278        -2.93054
O          6.57694        25.38566        -1.36852
H          5.79411        25.14433        -1.91768
O          7.82024         6.05553         2.18016
H          7.06502         5.80067         2.75185
O          8.80864        14.78225        -2.25186
H          8.04479        15.25804        -2.64299
O          9.22149         8.18043        -2.54783
H          9.90982         8.46660        -3.18266
O         18.22716        27.33893         1.31343
H         17.83415        26.85621         2.07256
O          9.23960         8.07839         1.07632
H          8.75672         7.57432         1.77579
O         17.66861        15.31004         1.34581
H         17.67104        14.50996         1.91518
O          7.36076        26.85342         2.80360
H          8.26602        26.58417         3.10390
O         11.45303        14.99653        -1.87543
H         10.59688        14.98209        -2.37242
O          1.11588        28.16639        -1.24324
H          1.20329        27.32318        -1.73711
O         19.07030         9.97072         2.96211
H         18.73288        10.87012         3.18408
O         14.17603         5.55583         1.94020
H         14.98185         5.32721         2.45016
O         20.34154        21.18687        -2.48158
H         20.30434        20.21617        -2.65252
O         16.85859        29.49646        -2.24903
H         17.09238        28.82632        -2.93312
O          2.38754         4.13325        -0.38985
H          2.39060         3.17726        -0.60798
O         11.40866        11.42047         1.32772
H         11.52444        12.26775         1.82810
O         18.13355        30.07411         1.13251
H         18.31528        29.15053         1.43786
O          3.77116         8.52888         1.92358
H          3.03690         8.18972         2.48106
O         16.64137         8.70047         2.40465
H         17.44032         9.10571         2.83137
O         11.09817        27.73235        -0.71631
H         11.82610        28.31386        -1.02328
O          2.76085        14.09838        -2.85471
H          2.01979        13.60206        -3.26423
O         16.93376        23.44375         2.04434
H         16.16742        23.35615         2.66338
H          1.17235         2.80398         2.22408
H         -0.93325         3.83798         1.54762
H         -0.79711         5.60431        -0.34840
H         -1.05028         7.97433        -0.50154
H         -0.98107        10.33920        -1.16018
H         -0.96806        12.23725        -1.28193
H         -0.96273        14.64028        -1.35262
H         -0.98254        16.54502        -1.33361
H         -0.95004        18.96445        -1.52988
H         -0.94144        21.00941        -1.36504
H         -0.99179        23.24967        -0.47399
H         -0.94638        25.07644         0.44639
H         -0.99495        27.51383         0.67889
H          0.25505        29.68528         1.06489
H          3.82197         2.51179         1.70724
H          2.37924        30.75733         1.69278
H          6.19064         2.43921         1.30742
H          4.84859        30.80467         1.56336
H          8.69023         2.34722         1.04441
H          7.32167        30.80535         1.69360
H         11.10127         2.34164         0.17754
H          9.81015        30.83765         1.66985
H         13.48557         2.32588        -0.16107
H         12.22427        30.95764         1.43021
H         15.99984         2.43413         0.01160
H         14.72641        31.00031         0.49709
H         18.40374         2.50123         0.34653
H         16.93029        31.05944        -0.21705
H         20.51404         3.77515         0.58005
H         21.70285         5.95132         0.83788
H         21.64036         8.38397         1.21057
H         21.58700        10.27671         1.77299
H         21.75973        12.56665         1.10454
H         21.52883        14.57668         1.61287
H         21.60453        16.98784         1.32167
H         21.75197        19.12001         0.83680
H         21.50678        21.43933         0.38930
H         21.77264        23.19838        -1.66051
H         21.59342        25.65677        -1.79233
H         21.36078        27.56069        -2.23508
H         21.08601        29.98804        -2.41025
H         19.02637        31.14505        -1.76083
