         424
 CSIRO Nanostructure Databank - Neutral Graphene Oxide Data Set
C          1.40543         1.93439         1.28789
C          1.38490         3.33738         1.35163
C          2.55689         1.26316         0.90776
C          2.49996         4.09292         0.96389
C          1.29744         6.37249         0.89012
C          1.32283         7.70616         1.00954
C          2.51476         5.57369         1.31568
C          2.54833         8.40983         1.56668
C          1.39557        10.65325         1.45775
C          1.41685        12.04340         1.47237
C          2.57984         9.90997         1.34791
C          2.64116        12.74435         1.50349
C          1.55194        14.99361         1.72382
C          1.60353        16.41336         1.84214
C          2.67474        14.20682         1.54749
C          2.79313        17.11695         1.77564
C          2.89633        18.53663         2.00153
C          3.71481         1.99160         0.52427
C          3.65389         3.41745         0.51709
C          4.92256         1.32546         0.17135
C          4.80054         4.15642        -0.03800
C          3.73431         6.35027         0.85009
C          3.79774         7.70679         1.06111
C          4.82728         5.68618         0.14102
C          5.01324         8.45294         0.81420
C          3.82007        10.59342         1.29168
C          3.84559        12.00303         1.43631
C          5.05905         9.84784         1.03463
C          5.16437        12.65185         1.80523
C          3.97884        14.86815         1.33880
C          4.02510        16.40044         1.42175
C          5.20455        14.13798         1.60345
C          5.32623        17.06462         1.63831
C          4.09075        19.19847         1.92387
C          5.34825        18.50928         1.72635
C          6.10780         2.02765        -0.14052
C          6.08149         3.46210        -0.23052
C          7.32445         1.35221        -0.42501
C          7.24481         4.18093        -0.55113
C          6.09522         6.39025         0.01156
C          6.18816         7.74582         0.35334
C          7.20354         5.66160        -0.61947
C          7.44838         8.44922         0.24941
C          6.30477        10.53389         0.92107
C          6.34903        12.05030         0.99354
C          7.47336         9.83692         0.59734
C          7.70064        12.62255         1.50441
C          6.48581        14.84867         1.93689
C          6.49422        16.33071         1.64209
C          7.71402        14.13054         1.44092
C          7.75864        17.00665         1.48388
C          6.56261        19.17694         1.68934
C          7.79345        18.46692         1.50054
C          8.50673         2.05425        -0.70869
C          8.48282         3.50019        -0.73064
C          9.72635         1.35500        -0.96920
C          9.71003         4.22220        -0.87254
C          8.53426         6.40778        -0.72953
C          8.62034         7.77443        -0.18942
C          9.76484         5.60686        -0.81697
C          9.89960         8.39187        -0.20199
C          8.78057        10.52765         0.65387
C          8.84378        12.00582         0.74176
C         10.00838         9.78559         0.25720
C          9.97758        12.69667         0.43542
C          8.87242        14.82308         1.16658
C          8.90718        16.27367         1.22525
C         10.08192        14.11493         0.73381
C         10.17416        16.97808         0.79693
C          9.01068        19.13412         1.40966
C         10.25212        18.42647         1.23801
C         10.95667         2.01474        -1.10104
C         11.03394         3.49291        -0.80583
C         12.17110         1.35306        -1.30586
C         12.10766         4.18458        -1.64896
C         11.03130         6.31298        -0.91727
C         11.05913         7.73524        -0.64533
C         12.17636         5.64989        -1.30976
C         12.32344         8.43244        -0.73176
C         11.22162        10.54116        -0.10350
C         11.11486        12.03497        -0.30901
C         12.35127         9.86113        -0.45237
C         12.44452        12.73863        -0.19402
C         11.29310        14.77460         0.63113
C         11.39870        16.15748         1.22935
C         12.47364        14.13260         0.09212
C         12.66789        16.89289         0.88421
C         11.46277        19.05072         1.35364
C         12.77545        18.29863         1.43157
C         13.42271         2.06317        -1.34464
C         13.43720         3.48843        -1.46287
C         14.64230         1.37114        -1.25354
C         14.64941         4.20347        -1.50301
C         13.38614         6.40522        -1.78157
C         13.46629         7.79977        -1.21627
C         14.68442         5.64287        -1.63784
C         14.69765         8.52926        -1.44137
C         13.68386        10.55806        -0.39939
C         13.61588        12.06131        -0.53886
C         14.73502         9.89939        -1.23651
C         14.82243        12.78430        -0.76809
C         13.65626        14.87052        -0.12639
C         13.68164        16.29081         0.19420
C         14.83044        14.20578        -0.61210
C         14.81601        17.10061        -0.30602
C         13.95057        19.07393         0.90691
C         14.97432        18.48939         0.18841
C         15.87689         2.06475        -1.24092
C         15.88709         3.49520        -1.37796
C         17.09935         1.37387        -1.08315
C         17.12336         4.19914        -1.40152
C         15.88505         6.33081        -1.71901
C         15.91333         7.79717        -1.78730
C         17.14627         5.62130        -1.62021
C         17.11394         8.46280        -1.91590
C         15.88394        10.69840        -1.64194
C         15.99634        12.11437        -1.24065
C         17.16353         9.93097        -1.97468
C         17.19878        12.80134        -1.45482
C         16.03646        14.90823        -0.87484
C         16.03528        16.37823        -0.85178
C         17.22704        14.22735        -1.23298
C         17.31642        17.08848        -0.88603
C         16.19021        19.16411        -0.10616
C         17.34453        18.49217        -0.58988
C         18.32923         2.06142        -1.05920
C         18.34463         3.49271        -1.24153
C         19.54707         1.37396        -0.85098
C         19.58188         4.19569        -1.24440
C         18.37207         6.29753        -1.70787
C         18.41641         7.73942        -2.16410
C         19.60103         5.61501        -1.46902
C         19.58475         8.49429        -1.48197
C         18.43617        10.66842        -1.84482
C         18.42616        12.08504        -1.79873
C         19.65351         9.96107        -1.85399
C         19.65171        12.77703        -1.98701
C         18.42574        14.96285        -1.45804
C         18.48619        16.37458        -1.23745
C         19.59592        14.26082        -2.01711
C         19.74008        17.08786        -1.31873
C         18.58092        19.17445        -0.68186
C         19.77050        18.49446        -1.01738
C         20.77693         2.06165        -0.81511
C         20.79699         3.48824        -1.03140
C         21.99115         1.38283        -0.56802
C         22.03335         4.18480        -1.03326
C         20.84945         6.31162        -1.46449
C         20.88737         7.75535        -1.64988
C         22.05748         5.59426        -1.27748
C         22.06350         8.42385        -1.83705
C         20.86410        10.64728        -2.05169
C         20.85981        12.05969        -2.18835
C         22.13313         9.85760        -2.32869
C         22.14785        12.77560        -2.46309
C         20.88986        15.03727        -2.14367
C         20.94149        16.42147        -1.63649
C         22.17511        14.27949        -2.32760
C         22.18752        17.08562        -1.57235
C         21.01187        19.17511        -1.04503
C         22.21153        18.49112        -1.28445
C         23.21919         2.07438        -0.50924
C         23.25028         3.49382        -0.76147
C         24.42212         1.40754        -0.18704
C         24.47659         4.20280        -0.71271
C         23.32197         6.26613        -1.33512
C         23.33766         7.68849        -1.75321
C         24.50539         5.59414        -1.04814
C         24.58814         8.47941        -1.51721
C         23.38948        10.60219        -1.90056
C         23.49132        12.01869        -2.41426
C         24.53993         9.96324        -1.51523
C         24.64195        12.79858        -1.80172
C         23.43526        14.96745        -1.95900
C         23.42510        16.35673        -1.72747
C         24.64469        14.21658        -1.80922
C         24.66919        17.05981        -1.58053
C         23.46340        19.17797        -1.25520
C         24.66006        18.49329        -1.40151
C         25.62755         2.11619        -0.04246
C         25.67196         3.52619        -0.30046
C         26.81161         1.44808         0.39610
C         26.87733         4.24915        -0.06871
C         25.83976         6.31177        -1.16769
C         25.67687         7.78734        -0.72915
C         26.94691         5.66555        -0.36300
C         26.98623         8.54808        -0.71743
C         25.79995        10.66616        -1.30075
C         25.82476        12.09310        -1.46070
C         26.98390         9.96792        -0.94031
C         27.06685        12.80369        -1.31429
C         25.88537        14.92324        -1.63537
C         25.88875        16.36077        -1.61415
C         27.08954        14.20333        -1.49872
C         27.14034        17.08187        -1.52496
C         25.91441        19.19348        -1.38642
C         27.10652        18.52636        -1.47120
C         27.96994         2.15212         0.64966
C         28.00629         3.56731         0.45242
C         29.17413         1.44403         1.22195
C         29.23533         4.28403         0.66926
C         28.05722         6.42322        -0.05223
C         28.12569         7.86178        -0.29672
C         29.19436         5.76673         0.63010
C         29.36811         8.58284        -0.08558
C         28.22649        10.68748        -0.77800
C         28.27265        12.08700        -0.98960
C         29.41022         9.98454        -0.36183
C         29.51259        12.80820        -0.80937
C         28.40276        14.90877        -1.70599
C         28.35493        16.39620        -1.45541
C         29.57262        14.21894        -1.05161
C         29.59282        17.10033        -1.26457
C         28.38174        19.31725        -1.61241
C         29.62450        18.53199        -1.28139
C         30.47356         2.18499         0.99524
C         30.43844         3.61418         0.82432
C         31.66558         1.51113         1.08664
C         31.72411         4.37813         0.57744
C         30.44867         6.53892         0.89023
C         30.53336         7.92757         0.38142
C         31.72524         5.76250         1.25081
C         31.76251         8.62188         0.50171
C         30.62489        10.70329        -0.13490
C         30.66989        12.12680        -0.37002
C         31.78524        10.01477         0.29005
C         31.91540        12.83830        -0.23817
C         30.76139        14.93443        -0.87401
C         30.79032        16.38118        -1.01190
C         31.96940        14.24306        -0.51498
C         32.00832        17.08639        -0.81193
C         30.80756        19.21384        -1.07991
C         32.02954        18.51716        -0.85304
C         32.93845         2.19846         1.08585
C         32.97248         3.61279         0.93729
C         34.12951         1.49456         1.30076
C         34.18641         4.31101         1.01205
C         33.00551         6.50088         0.91024
C         33.00646         7.89157         0.75043
C         34.21742         5.75995         0.91119
C         34.26216         8.58829         0.68841
C         33.00407        10.77972         0.72821
C         33.09212        12.16697         0.15560
C         34.29003        10.00281         0.60110
C         34.33184        12.84403         0.20150
C         33.19670        14.93962        -0.42886
C         33.23105        16.37910        -0.59024
C         34.39548        14.24283        -0.09476
C         34.43520        17.08335        -0.47538
C         33.24248        19.20888        -0.65397
C         34.44663        18.51040        -0.47047
C         35.37707         2.16555         1.31113
C         35.40892         3.58675         1.14794
C         36.59509         1.45717         1.48265
C         36.66247         4.26163         1.05726
C         35.47073         6.42877         0.83534
C         35.48984         7.86024         0.75554
C         36.69800         5.69901         0.88711
C         36.73010         8.55630         0.78054
C         35.51300        10.69481         0.60585
C         35.54549        12.13262         0.48515
C         36.74551         9.97559         0.71916
C         36.77205        12.82398         0.56270
C         35.63692        14.92686        -0.00056
C         35.74421        16.34725        -0.48233
C         36.80957        14.24710         0.37199
C         36.88102        17.10299         0.15794
C         35.67331        19.20092        -0.18639
C         36.82779        18.52168         0.18147
C         37.82228         2.11802         1.40159
C         37.85293         3.51898         1.14005
C         39.06926         1.41019         1.62063
C         39.16045         4.17026         0.80293
C         37.94897         6.38297         0.87558
C         37.97185         7.83313         0.85174
C         39.16770         5.66675         0.97499
C         39.18363         8.52757         0.91268
C         37.97832        10.68453         0.82168
C         37.99725        12.10819         0.78272
C         39.20042         9.95658         0.96794
C         39.22605        12.81179         0.92135
C         38.04921        14.96390         0.55178
C         38.05313        16.39255         0.51377
C         39.24973        14.24798         0.84561
C         39.27875        17.11138         0.78858
C         38.00118        19.31605         0.70421
C         39.28656        18.53036         0.78916
C         40.26800         2.06866         1.66106
C         40.35892         3.47338         1.39398
C         41.54567         4.18078         1.50094
C         40.42276         6.32147         1.04197
C         40.50536         7.80739         0.76578
C         41.58682         5.57376         1.25488
C         41.60280         8.53536         1.50046
C         40.41277        10.65830         1.21731
C         40.43284        12.08436         1.17654
C         41.57379         9.88185         1.61392
C         41.63939        12.82255         1.35398
C         40.47455        14.94922         1.03851
C         40.49526        16.39825         0.99311
C         41.65434        14.19832         1.28946
C         41.69314        17.13557         1.15650
C         40.48581        19.22215         0.94769
C         41.68921        18.52206         1.11969
O         15.00246        16.97244        -1.74659
O          3.98917        15.72777         0.11528
O          4.40906         5.04910        -1.13591
O         20.00726        14.88093        -3.29425
O          7.64597         6.25240        -1.88788
O          9.66301         9.93113         1.71332
O         22.16078        13.63283        -3.65191
O         24.30380         7.95866        -2.86490
O         29.44418         6.40128         1.96567
O         16.30695        10.48520        -3.03423
O         11.49155         3.60869         0.57694
H         10.87095         3.10243         1.14158
O         10.73638        12.17095        -1.72635
H         11.53118        11.99657        -2.27410
O          2.55365         5.55276         2.77308
H          2.46666         6.48896         3.09152
O          5.32751        12.33837         3.21748
H          5.83763        13.08479         3.62336
O          2.48851         8.25809         3.02980
H          3.23376         8.77026         3.41070
O         28.32500        20.53185        -0.85400
H         28.28135        20.29687         0.09526
O         13.02100        18.15189         2.88127
H         12.29374        17.57280         3.21907
O         39.30919         3.98013        -0.67030
H         40.09842         4.49813        -0.94147
O         29.25507         0.09763         0.74632
H         29.33829         0.12111        -0.22868
O         22.20241         9.74453        -3.78146
H         23.07689         9.34445        -3.99330
O         14.14047        10.34823         0.99508
H         13.37859        10.53047         1.58647
O         11.74624         4.08307        -3.05176
H         12.31756         4.72286        -3.53936
O         25.19223         7.79106         0.64528
H         25.91364         7.45758         1.22099
O          6.59943        14.76955         3.44917
H          7.51698        14.48098         3.65566
O         31.77088         4.64062        -0.86002
H         31.87247         3.78214        -1.32196
O         28.66129        14.78300        -3.16227
H         29.53083        15.20218        -3.33888
O         36.11603        16.23933        -1.92143
H         36.95931        15.73848        -1.95920
O         19.29727         8.49811        -0.04944
H         19.32553         7.56837         0.26317
O         31.75370         5.56688         2.67892
H         30.84227         5.75272         3.01009
O          6.23437        12.52557        -0.36789
H          5.38489        12.20837        -0.73992
O         40.85326         7.89696        -0.66811
H         40.88368         8.85074        -0.89652
O          7.91131        12.25363         2.89905
H          8.23195        11.32491         2.92170
O         26.28771         6.24284        -2.54023
H         25.61076         6.70854        -3.09084
O         18.64884         7.72120        -3.59564
H         18.47338         8.61857        -3.95000
O         10.19183        16.97739        -0.65619
H          9.39403        17.45137        -0.97091
O         32.81637        10.97729         2.18587
H         33.60314        11.46271         2.51467
O         23.92728        11.84047        -3.80060
H         23.52567        12.58350        -4.31355
O         13.18505         6.55149        -3.25005
H         12.43903         7.17591        -3.38145
O         38.18259        20.51755        -0.05634
H         38.36906        20.26526        -0.98367
O         11.30982        16.02002         2.68523
H         11.95259        15.33280         2.96082
H          0.51283         1.36633         1.58558
H          0.49004         3.84919         1.73248
H          2.58880         0.16429         0.90973
H          0.40590         5.85509         0.50448
H          0.44664         8.30424         0.71934
H          0.42838        10.13770         1.53156
H          0.46477        12.58896         1.51281
H          0.56862        14.51857         1.84829
H          0.66906        16.95312         2.05438
H          1.97133        19.09760         2.20242
H          4.94096         0.22566         0.17632
H          4.11769        20.29049         2.05388
H          7.34352         0.25270        -0.39690
H          6.59051        20.27273         1.78525
H          9.69145         0.25794        -1.05667
H          9.03891        20.22778         1.53291
H         12.18740         0.25494        -1.38452
H         11.49166        20.12314         1.60654
H         14.64109         0.27528        -1.15776
H         14.06456        20.11031         1.26038
H         17.08923         0.28077        -0.96054
H         16.28755        20.22072         0.18476
H         19.53225         0.28416        -0.70193
H         18.62318        20.24781        -0.44637
H         21.97528         0.29689        -0.39296
H         21.03727        20.25479        -0.83681
H         24.40438         0.32537         0.00911
H         23.47193        20.26552        -1.09167
H         26.78646         0.36191         0.56682
H         25.91106        20.29190        -1.32810
H         29.02422         1.37260         2.33790
H         28.45961        19.63191        -2.69325
H         31.65514         0.42076         1.23215
H         30.80806        20.31327        -1.10715
H         34.10078         0.40384         1.44023
H         33.24305        20.30881        -0.64888
H         36.56752         0.37158         1.65874
H         35.67248        20.30062        -0.16698
H         39.02442         0.33022         1.82371
H         37.74403        19.65010         1.75095
H         41.18925         1.52270         1.91562
H         42.46715         3.66242         1.80545
H         42.56211         6.07753         1.29269
H         42.49075         7.98306         1.83950
H         42.42773        10.40081         2.07254
H         42.58274        12.29135         1.53778
H         42.61145        14.71610         1.43591
H         42.64777        16.61513         1.30869
H         40.47816        20.32097         0.93550
H         42.63079        19.07547         1.24109
