         244
 CSIRO Nanostructure Databank - Neutral Graphene Oxide Data Set
C          1.41494         2.10266        -1.07971
C          1.27825         3.39108        -0.63338
C          2.69998         1.58664        -1.39038
C          2.49092         4.27844        -0.71261
C          1.18850         6.37987        -0.08382
C          1.17375         7.77469         0.10705
C          2.38426         5.67301        -0.13031
C          2.35464         8.52654         0.11513
C          1.18137        10.72333         0.48013
C          1.20748        12.10619         0.57124
C          2.35881         9.98648         0.22469
C          2.41086        12.83706         0.43844
C          1.28448        15.03252         0.87597
C          1.32330        16.41328         1.04996
C          2.44499        14.28566         0.58354
C          2.52634        17.13196         0.90451
C          2.58149        18.55194         1.06410
C          3.87984         2.23465        -0.92507
C          3.74936         3.51850        -0.34681
C          5.14249         1.53821        -1.15870
C          4.73922         4.26517         0.52819
C          3.60455         6.40034         0.01466
C          3.59832         7.82357         0.02887
C          4.83618         5.70837         0.13502
C          4.84243         8.50398        -0.09786
C          3.56930        10.70116         0.06049
C          3.61100        12.11507         0.18182
C          4.79424         9.96015        -0.28935
C          4.88608        12.81672         0.18921
C          3.69098        14.97720         0.44398
C          3.72478        16.42268         0.56223
C          4.89812        14.25787         0.29141
C          4.91689        17.13488         0.36144
C          3.76237        19.23260         0.91028
C          4.96964        18.54388         0.55786
C          6.26348         1.72109        -0.37728
C          6.08489         3.64137         0.63968
C          7.62200         1.50767        -0.70939
C          7.30744         4.25006         0.48652
C          6.07580         6.37805         0.07083
C          6.06812         7.80889        -0.11513
C          7.32335         5.66973         0.23848
C          7.32576         8.53252        -0.12213
C          6.13771        10.71407        -0.23041
C          6.09159        12.12541         0.14891
C          7.34847         9.91845        -0.04203
C          7.37728        12.80882         0.52188
C          6.15417        14.95819         0.15183
C          6.10832        16.42378        -0.22908
C          7.35176        14.27763         0.18528
C          7.41180        17.13211         0.02968
C          6.19891        19.24034         0.46111
C          7.42654        18.56874         0.27032
C          8.71786         2.11395        -0.04623
C          8.55732         3.42200         0.82446
C          9.94734         1.46130        -0.26834
C          9.80933         4.30824         0.73058
C          8.55891         6.38512         0.16517
C          8.57557         7.78899        -0.03784
C          9.80094         5.68646         0.35132
C          9.82098         8.47538        -0.12478
C          8.64572        10.63031         0.26880
C          8.57575        12.09801        -0.04416
C          9.77926         9.94453        -0.49160
C          9.87868        12.83092         0.11068
C          8.60667        14.96442        -0.07542
C          8.58015        16.42419        -0.03098
C          9.78197        14.27737        -0.28905
C          9.86868        17.11052         0.16674
C          8.65747        19.25631         0.35565
C          9.89867        18.58707         0.26403
C         11.14277         1.67564         0.47962
C         11.01982         3.76434         1.12038
C         12.45000         1.38604         0.21459
C         12.30762         4.32998         0.84015
C         11.03737         6.38780         0.26743
C         11.02643         7.79208         0.01345
C         12.29960         5.68816         0.40854
C         12.33954         8.54143         0.10211
C         11.09736        10.69068        -0.40069
C         11.07847        12.09016        -0.43491
C         12.31484         9.95079        -0.45987
C         12.27934        12.83577        -0.71172
C         10.98221        14.99716        -0.86258
C         11.11155        16.37442        -0.22398
C         12.28103        14.21584        -0.81865
C         12.31518        17.19736        -0.52517
C         11.13662        19.24225         0.30413
C         12.36815        18.57873         0.02070
C         13.52396         2.04237         1.08320
C         13.52590         3.56291         0.79902
C         14.85030         1.37180         0.85844
C         14.70499         4.21586         0.43644
C         13.52778         6.33452         0.10909
C         13.47839         7.72021        -0.49568
C         14.73431         5.62615         0.18476
C         14.79696         8.45959        -0.45611
C         13.53910        10.58075        -0.75916
C         13.50595        12.04231        -1.03870
C         14.76938         9.85845        -0.74095
C         14.79834        12.80700        -1.11093
C         13.56280        14.96548        -1.21867
C         13.58033        16.46313        -0.87410
C         14.75073        14.23403        -0.58481
C         14.85651        17.12311        -0.53077
C         13.59768        19.22133         0.02292
C         14.83582        18.53702        -0.24267
C         16.00257         2.02471         0.56366
C         15.97483         3.45895         0.09132
C         17.27162         1.34268         0.59159
C         17.18727         4.23430         0.56004
C         16.01039         6.33271        -0.01977
C         15.98731         7.73911        -0.30622
C         17.22906         5.66480         0.16762
C         17.29680         8.41254        -0.63686
C         16.06411        10.56293        -0.92856
C         16.09231        12.07061        -1.01756
C         17.28817         9.90523        -0.43784
C         17.29568        12.79586        -0.57120
C         16.07926        14.95802        -0.63111
C         16.05725        16.40426        -0.47534
C         17.25512        14.24245        -0.49239
C         17.29936        17.11305        -0.29836
C         16.05017        19.22823        -0.15070
C         17.29492        18.54976        -0.22990
C         18.47158         2.02780         0.69828
C         18.44501         3.50365         0.90344
C         19.72007         1.35848         0.62817
C         19.75616         4.28233         1.00759
C         18.52636         6.29458         0.01319
C         18.55195         7.73212        -0.16294
C         19.71672         5.59684         0.24011
C         19.69851         8.46834         0.04338
C         18.42996        10.63004        -0.18402
C         18.45251        12.07525        -0.29897
C         19.57477         9.90458         0.51980
C         19.78467        12.75752        -0.49865
C         18.48365        14.93655         0.06148
C         18.51788        16.41377        -0.20962
C         19.78072        14.24873        -0.25383
C         19.74865        17.10360        -0.16517
C         18.52433        19.23617        -0.15150
C         19.74666        18.54095        -0.14729
C         20.92557         2.06351         0.60563
C         20.97761         3.45771         0.67029
C         22.21495         4.15769         0.53589
C         21.00616         6.23917         0.00196
C         21.00429         7.81569        -0.03070
C         22.24510         5.50275         0.29984
C         22.20748         8.56856         0.37550
C         20.90273        10.66801         0.57881
C         20.97469        12.11569         0.18288
C         22.15159         9.87919         0.66829
C         22.24603        12.82571        -0.13487
C         20.97086        14.92392        -0.25933
C         20.99782        16.38765        -0.14189
C         22.21691        14.15402        -0.37085
C         22.18271        17.11022        -0.05999
C         20.99557        19.23099        -0.07106
C         22.17661        18.52569        -0.01876
O         12.79516        17.18007        -1.90369
O         16.30704        11.24518        -2.21090
O          5.44507        10.42533        -1.50448
O         20.82485        11.74869         1.58557
O         21.14196         7.01142        -1.23601
O         14.07987        12.48106        -2.32046
O          6.03323         2.28641         0.91495
O         10.93927         2.46615         1.65465
O         10.74074        16.43158         1.17073
O         17.50980         3.94117         1.96280
O         19.13430         9.78457         1.90630
H         19.41338        10.61349         2.36072
O         18.32767        14.80975         1.53160
H         17.71809        15.52104         1.82356
O          9.41344        10.00761        -1.89849
H         10.12506         9.57806        -2.41813
O          8.37874         3.01922         2.19663
H          9.18037         2.50915         2.45392
O          4.18097         4.24143         1.90019
H          4.32216         3.33168         2.24279
O         13.28686         1.82430         2.49073
H         12.35275         2.07379         2.68004
O          7.47877        12.74163         2.01939
H          8.33496        13.19375         2.23132
O         14.44103        14.14725         0.84095
H         15.24791        13.86489         1.32142
O         17.37569         8.26485        -2.10770
H         18.15874         8.76705        -2.42030
O          2.60699         4.59061        -2.16809
H          2.66890         3.72603        -2.63128
O         13.14984         7.54429        -1.90590
H         13.95440         7.22567        -2.36739
O          8.92457        10.45652         1.70864
H          8.24523        11.01430         2.17161
O         20.05368        12.55453        -1.92907
H         19.29560        12.91735        -2.43537
O         12.63227         8.68830         1.52154
H         11.86676         9.12939         1.94675
O         19.93787         4.66722         2.40458
H         19.03194         4.71448         2.79486
O          5.90774        16.45895        -1.68746
H          5.07861        15.97171        -1.88027
O         16.05505         3.42723        -1.36468
H         15.27333         2.94253        -1.70238
O         13.70581        14.90628        -2.64753
H         13.09774        15.58787        -3.01693
O         10.71265        15.24390        -2.27775
H         10.70571        14.37973        -2.74125
O         10.16893        12.88128         1.58124
H         10.11909        11.93968         1.88648
H          0.53451         1.45349        -1.19439
H          0.28459         3.81334        -0.42795
H          2.78647         0.57638        -1.81471
H          0.22900         5.85991        -0.21536
H          0.19958         8.27929         0.16741
H          0.22277        10.20328         0.61000
H          0.26308        12.63108         0.76687
H          0.31779        14.52390         0.98907
H          0.39896        16.95601         1.29559
H          1.65867        19.09151         1.32287
H          5.22324         0.95733        -2.08956
H          3.79735        20.32262         1.05242
H          7.84671         0.76554        -1.49285
H          6.20734        20.32677         0.63632
H          9.95642         0.64652        -1.01017
H          8.64789        20.34793         0.49657
H         12.73401         0.82996        -0.68925
H         11.16081        20.32637         0.49384
H         14.89761         0.31276         1.15739
H         13.65183        20.28030         0.31780
H         17.27806         0.24150         0.58020
H         16.04319        20.31584         0.01434
H         19.72685         0.26534         0.51173
H         18.52603        20.33427        -0.08445
H         21.86568         1.50781         0.46972
H         23.15457         3.58534         0.57187
H         23.20630         6.00848         0.13547
H         23.17005         8.04024         0.41756
H         23.06204        10.41225         0.97805
H         23.19942        12.27810        -0.12971
H         23.15456        14.68555        -0.58642
H         23.15074        16.59235        -0.02716
H         20.99875        20.33018        -0.04747
H         23.13452        19.06048         0.04722
