         261
 CSIRO Nanostructure Databank - Neutral Graphene Oxide Data Set
C        -11.12974         0.63767        -0.15721
C         -9.83972         1.33233         0.07769
C         -8.59263         0.56955        -0.24984
C         -7.29500         1.33193        -0.31738
C         -6.02061         0.56029        -0.36545
C         -4.70819         1.26802        -0.51892
C         -3.51447         0.57332         0.06334
C         -2.43093         1.45008         0.64277
C         -1.28422         0.79565         1.36444
C          0.00282         1.57937         1.57075
C          1.28971         0.80167         1.75267
C          2.61042         1.55086         1.61640
C          3.88007         0.79017         1.33718
C          5.11010         1.59521         0.94776
C          6.34598         0.85932         0.58102
C          7.50987         1.59679        -0.00264
C          8.73748         0.87214        -0.40200
C         10.05332         1.53613        -0.05824
C         11.25120         0.70792        -0.49457
C         -9.71797         2.79141         0.25474
C         -8.52567         3.48332         0.07075
C         -7.33265         2.81925        -0.60138
C         -6.01687         3.50510        -0.30525
C         -4.73657         2.76193        -0.39318
C         -3.44695         3.48854        -0.59943
C         -2.26117         2.82995         0.04495
C         -1.22528         3.71570         0.67725
C          0.00951         3.06110         1.28163
C          1.31865         3.77591         1.05172
C          2.60690         3.08080         1.44697
C          3.86529         3.80769         1.05178
C          4.97223         3.00091         0.35814
C          6.30702         3.77693         0.30511
C          7.61934         3.06427         0.28666
C          8.86432         3.73263        -0.19157
C          9.99503         3.01482        -0.40835
C         -8.38809         4.86151         0.34983
C         -7.26627         5.61689        -0.10617
C         -6.20094         4.88045        -0.90407
C         -4.88640         5.65722        -1.13347
C         -3.55008         4.97030        -0.87209
C         -2.27104         5.76244        -0.63227
C         -1.23751         5.17278         0.31575
C         -0.01766         6.00368         0.66711
C          1.29885         5.26186         0.78374
C          2.57503         6.06809         0.87509
C          3.86666         5.28617         0.72493
C          5.05802         5.92169         0.07996
C          6.23140         5.09848        -0.48572
C          7.52705         5.91275        -0.44601
C          8.86000         5.25086        -0.12452
C         -7.21520         6.97838         0.06334
C         -6.29737         7.82828        -0.76984
C         -4.93228         7.17763        -1.03937
C         -3.66160         7.95580        -0.83226
C         -2.31450         7.25814        -0.80283
C         -1.12371         8.12163        -0.44473
C         -0.02415         7.46824         0.36954
C          1.25554         8.26675         0.33575
C          2.55360         7.51705         0.45437
C          3.62868         7.99447        -0.48403
C          4.90829         7.22961        -0.63886
C          6.18683         7.91024        -1.07931
C          7.46800         7.23203        -0.74118
C         -6.20318         9.24284        -0.24628
C         -5.06786         9.86576         0.08197
C         -3.73299         9.16801         0.12165
C         -2.57386        10.12189        -0.09517
C         -1.34502         9.58122        -0.15270
C         -0.11764         9.90866        -0.96827
C          1.21180         9.64047        -0.25734
C          2.48859        10.29612        -0.62210
C          3.60878         9.47336        -0.99844
C          4.93753        10.05839        -1.29561
C          6.10355         9.37484        -1.28234
C        -11.17212        -0.66286        -0.48980
C        -10.00022        -1.49462        -0.97208
C         -8.63529        -0.80735        -0.84588
C         -7.36326        -1.61165        -0.78417
C         -6.03309        -0.93898        -0.49370
C         -4.86785        -1.61903         0.15115
C         -3.73627        -0.77984         0.69989
C         -2.59166        -1.43801         1.42683
C         -1.25475        -0.72315         1.32505
C          0.03000        -1.47314         1.50188
C          1.31164        -0.70643         1.78476
C          2.65350        -1.44116         1.65118
C          3.82179        -0.71129         0.95275
C          5.18530        -1.44728         1.07031
C          6.36289        -0.65163         0.57309
C          7.37233        -1.29111        -0.33505
C          8.68816        -0.60782        -0.58239
C          9.94408        -1.40439        -0.74911
C         11.21997        -0.63438        -0.63364
C         -9.95177        -2.90687        -0.42776
C         -8.83844        -3.68309        -0.43554
C         -7.40331        -3.17137        -0.66376
C         -6.45744        -3.61406         0.54839
C         -5.14870        -2.92697         0.82445
C         -3.95506        -3.67051         1.41340
C         -2.65028        -2.93889         1.68913
C         -1.34437        -3.71879         1.78081
C         -0.00343        -2.94807         1.82884
C          1.30720        -3.69566         1.70165
C          2.65923        -2.94791         1.63379
C          3.91835        -3.71907         1.26839
C          5.28058        -3.02020         0.99279
C          5.88436        -3.45105        -0.35488
C          7.25680        -2.76112        -0.63861
C          8.56360        -3.49412        -0.55635
C          9.77404        -2.86058        -0.53108
C         -9.00457        -5.14008        -0.41955
C         -8.06848        -6.01015        -0.78632
C         -6.42145        -5.07577         0.96896
C         -5.14290        -5.76111         0.50259
C         -3.94865        -5.18055         1.22578
C         -2.66722        -5.95941         1.26708
C         -1.36466        -5.21757         1.52919
C         -0.10975        -5.86307         0.99940
C          1.20616        -5.06953         1.06858
C          2.45868        -5.80035         0.73251
C          3.80274        -5.13659         0.83045
C          4.78304        -5.74596        -0.13866
C          6.02684        -4.98188        -0.71557
C          7.29976        -5.72443        -0.35664
C          8.55406        -4.93382        -0.06851
C         -7.32946        -7.00454        -1.23833
C         -6.39741        -7.86791        -0.38279
C         -5.07537        -7.09618        -0.16011
C         -3.77008        -7.85653        -0.13352
C         -2.64792        -7.39066         0.75976
C         -1.36540        -8.15909         0.69464
C         -0.10010        -7.33659         0.67020
C          1.20004        -8.11401         0.69959
C          2.48437        -7.30870         0.80352
C          3.78466        -7.94770         0.58159
C          4.85712        -7.25259        -0.09094
C          6.15345        -8.00908        -0.34392
C          7.34733        -7.07496        -0.43924
C         -6.18708        -9.21065        -1.05050
C         -5.01095        -9.84203        -1.14915
C         -3.72941        -9.24123        -0.69136
C         -2.60637       -10.18186        -0.27475
C         -1.29601        -9.44630        -0.05659
C         -0.11890       -10.03101        -0.34594
C          1.23499        -9.57754         0.16060
C          2.30498        -9.78219        -0.92492
C          3.62591        -9.68479        -0.63338
C          4.76723        -9.73897        -1.55481
C          5.90059        -9.00403        -1.46743
O         -6.32176        -2.77333         1.71305
O          6.14109         1.40607         1.93166
O          0.72009        -3.42773         2.99001
O          4.19486        -4.84546         2.18879
O          6.94804        -1.76933        -1.65155
O         -4.30098         7.95122        -2.12399
O          3.89467        -9.30351         0.74938
O          4.13762        -6.50885        -1.15864
O          2.77256         7.13318         1.83969
O         -2.21988        -8.26731         1.87076
O         -3.70673         0.67841        -1.37005
O          1.82623        -7.92091         1.98912
O         -2.38311         1.39797         2.08775
O         -6.79858         4.50029        -2.20665
O         -6.57079         1.01048         0.91431
O          5.33911         7.14840        -2.00550
O         -0.49912        -1.21838         0.15720
O         -1.86991         4.69485         1.54565
O          5.95203         4.77216        -1.80882
O          1.22975         0.05416         3.01097
O         -0.33759         6.97843         1.70055
O          7.85842         1.46244        -1.41588
O          3.48499         3.66127         2.44612
O         -1.32480        -4.69381         2.86441
O         -3.58285        -3.26185         2.75060
O          5.99222        -5.01403        -2.09618
O          6.23149        -1.05332         1.98356
O          2.95405        -2.18212         2.84795
O         -4.08896         5.16451        -2.22058
O         -0.15179         2.57881         2.63149
O         -7.17275        -5.56661         1.79152
O         -0.39683         8.62610        -1.68311
O         -3.63705        -0.74107         2.14331
O          7.08679         3.69785         1.50808
O          4.94406         5.95379         1.50270
O         -7.83663        -1.02742        -2.03906
O         -2.40207         2.85957        -1.39770
O          3.10297         8.31176        -1.78360
O          1.12639         9.45225         1.19949
O          1.72976        -5.09613        -0.30777
O         -6.90445        -3.72197        -1.81048
O         -4.96387        -5.85411        -0.93439
O         -0.27869        -6.34173        -0.37623
O         -7.42690         3.13238        -2.03843
O          3.49933         1.11315         2.68493
O         -3.27049        -8.11371        -1.49915
O         -1.87390         6.38011        -1.87852
O         -4.97140        -1.54104        -1.29113
O          1.40902         4.29597        -0.31796
O         -9.07648         0.58376         1.12505
O          9.19649        -0.93402        -1.91749
O         -3.57209        -5.89738         2.41801
O         -5.30829         3.26069         0.90455
O         -3.58595         8.53538         1.42413
H         -3.48224         9.23187         2.10580
O          3.50478        -0.72966        -0.45750
H          3.98281        -1.47375        -0.91734
O          6.37156        -8.76317         0.87707
H          7.27421        -9.14324         0.85029
O         -6.95553         7.91591        -2.06567
H         -6.25910         8.14249        -2.72311
O         -6.98390        -8.16537         0.89041
H         -7.25660        -7.32645         1.33895
O          8.68958        -4.89864         1.37093
H          7.91120        -4.41761         1.74148
O        -10.27866        -1.66388        -2.38826
H         -9.41806        -1.87037        -2.82455
O          9.20434         5.59663         1.23273
H          8.54983         5.15055         1.81888
O          6.21226        -3.46423         1.98260
H          5.91716        -3.14565         2.86322
O          4.50185         2.79588        -0.98350
H          4.94492         3.46518        -1.59490
O         10.09622         1.47746         1.40764
H         10.86651         2.00016         1.71482
O         -2.95636       -10.83464         0.95015
H         -2.88327       -10.17376         1.67740
O          4.90781        -2.98149        -1.29786
H          5.11252        -3.51569        -2.12562
O          1.53312       -10.44357         1.26577
H          2.04838        -9.93471         1.93255
H         12.16095        -1.17849        -0.81361
H         12.22867         1.21742        -0.49982
H         10.92291         3.53147        -0.70238
H          9.66035         5.67158        -0.78331
H          8.38501         7.84160        -0.75366
H          7.04535         9.92455        -1.43037
H          4.96130        11.14966        -1.43792
H          2.59605        11.38531        -0.51051
H         -0.12865        10.79664        -1.63821
H         -2.75123        11.20158        -0.21039
H         -5.09633        10.91589         0.41385
H         -7.15480         9.79579        -0.21852
H         -8.01401         7.47814         0.63299
H         -9.20370         5.39267         0.86322
H        -10.60859         3.34827         0.58669
H        -12.05827         1.18420         0.06732
H        -12.15269        -1.15231        -0.59259
H        -10.92814        -3.40966        -0.32674
H        -10.01451        -5.52255        -0.18412
H         -7.30207        -7.18668        -2.32830
H         -7.09951        -9.71730        -1.39962
H         -4.95980       -10.84727        -1.59486
H         -2.47411       -10.97489        -1.05290
H         -0.12448       -11.01298        -0.84423
H          1.98665       -10.08999        -1.93149
H          4.63437       -10.40087        -2.42518
H          6.66201        -9.11584        -2.25398
H          8.32559        -7.57231        -0.32050
H          9.45068        -5.47517        -0.46123
H         10.67248        -3.46093        -0.31661
