         429
 CSIRO Nanostructure Databank - Neutral Graphene Oxide Data Set
C          1.09426         2.10360        -0.16820
C          1.05916         3.50783        -0.13642
C          2.28750         1.41476        -0.03632
C          2.23343         4.26012         0.04432
C          1.05899         6.46896        -0.24101
C          1.10310         7.83510        -0.44004
C          2.24206         5.71185        -0.02922
C          2.32933         8.55389        -0.39457
C          1.37871        10.56575        -1.47646
C          1.59761        11.78667        -2.08218
C          2.43179         9.94785        -0.76101
C          2.80953        12.47112        -1.85855
C          1.76538        15.53776        -2.23284
C          1.64364        16.80662        -1.67072
C          2.89169        14.76057        -1.94935
C          2.71675        17.33623        -0.93634
C          2.68463        18.70943        -0.50827
C          3.51119         2.11198         0.19246
C          3.47058         3.56045         0.24638
C          4.72220         1.40119         0.26077
C          4.67274         4.28976         0.35657
C          3.47201         6.42014         0.06195
C          3.51162         7.84287        -0.07391
C          4.69650         5.70265         0.24511
C          4.74570         8.56212         0.08797
C          3.64740        10.67048        -0.52325
C          3.79303        12.03885        -0.96068
C          4.77451         9.96446        -0.01857
C          4.98654        12.84542        -0.60901
C          3.92918        15.15794        -1.07158
C          3.87681        16.53679        -0.67528
C          5.03514        14.30120        -0.65971
C          5.02623        17.16093        -0.11828
C          3.79099        19.30814         0.01658
C          5.01645        18.57080         0.16752
C          5.96313         2.03678         0.64509
C          5.93013         3.58448         0.63285
C          7.29420         1.37616         0.58075
C          7.17616         4.28199         0.31873
C          5.93702         6.41303         0.30844
C          5.96865         7.82113         0.27176
C          7.17088         5.66211         0.24479
C          7.22687         8.52189         0.33956
C          5.98838        10.72864         0.43494
C          6.09397        12.14935        -0.08984
C          7.26579         9.92801         0.33884
C          7.33733        12.81235         0.15515
C          6.19053        14.97005        -0.13406
C          6.20789        16.39672         0.06043
C          7.37952        14.23828         0.17914
C          7.39812        17.05919         0.49029
C          6.19844        19.21723         0.52660
C          7.41211        18.49920         0.65959
C          8.45012         2.08087         0.35553
C          8.33434         3.48666        -0.22237
C          9.75278         1.48602         0.52930
C          9.63051         4.24620        -0.14228
C          8.42851         6.37456         0.21984
C          8.44681         7.75135         0.37089
C          9.65260         5.58675         0.11791
C          9.71027         8.45823         0.78112
C          8.51552        10.63055         0.38390
C          8.53905        12.07257         0.36160
C          9.72199         9.92004         0.45902
C          9.78144        12.75079         0.54200
C          8.57619        14.90628         0.59446
C          8.56226        16.31413         0.76274
C          9.80219        14.16193         0.75868
C          9.74571        17.01605         1.28063
C          8.62157        19.17973         0.89627
C          9.83165        18.48374         1.11727
C         10.95984         2.12615         0.26659
C         10.85555         3.43762        -0.52268
C         12.20644         1.42795         0.39141
C         12.10068         4.31822        -0.62833
C         10.93010         6.28199         0.41616
C         10.97771         7.74467         0.40446
C         12.22935         5.54788         0.21593
C         12.17506         8.42501         0.21524
C         10.97872        10.58338         0.39782
C         11.01276        12.02819         0.54175
C         12.16303         9.85846         0.20819
C         12.23796        12.67690         0.79110
C         11.03794        14.79071         1.07662
C         11.04917        16.22865         1.43103
C         12.24776        14.05638         1.09083
C         12.29328        16.99061         1.32246
C         11.06610        19.12536         1.21759
C         12.29827        18.39832         1.28220
C         13.48720         2.01232         0.41871
C         13.67187         3.40099         0.94714
C         14.69847         1.31843         0.20838
C         14.78612         4.20037         0.35523
C         13.48914         6.32896         0.14226
C         13.44769         7.71244         0.08743
C         14.73304         5.59407         0.13153
C         14.68265         8.47225        -0.08614
C         13.39673        10.65922        -0.11153
C         13.48243        11.79503         0.93772
C         14.66264         9.84862        -0.17716
C         14.80877        12.54982         0.86372
C         13.52882        14.74628         1.42035
C         13.55656        16.25585         1.40924
C         14.83539        14.04236         1.15448
C         14.80944        16.96814         1.08572
C         13.55018        19.08881         1.23967
C         14.77841        18.41307         1.10756
C         15.94443         1.99876         0.12496
C         15.97004         3.46715         0.08284
C         17.16519         1.30658         0.03581
C         17.15352         4.15812        -0.21369
C         15.94249         6.31009        -0.12044
C         15.93529         7.73422        -0.20929
C         17.16099         5.57699        -0.23831
C         17.16539         8.42395        -0.35126
C         15.89489        10.63429        -0.53727
C         15.96005        11.99079         0.13440
C         17.19313         9.87904        -0.38753
C         17.11462        12.73183         0.02476
C         16.00500        14.82355         0.70218
C         15.97394        16.28083         0.75808
C         17.13859        14.15263         0.27848
C         17.20188        17.01249         0.55104
C         16.00072        19.11971         0.97670
C         17.21183        18.44452         0.74355
C         18.40962         1.97112        -0.14843
C         18.38981         3.40324        -0.63530
C         19.62547         1.31176        -0.04752
C         19.66343         4.15792        -0.34960
C         18.39636         6.28813        -0.36363
C         18.38218         7.69338        -0.40620
C         19.64571         5.56453        -0.34963
C         19.66827         8.41295        -0.46595
C         18.35748        10.59530        -0.40201
C         18.34460        12.09520        -0.59658
C         19.66403         9.91102        -0.44651
C         19.62959        12.77961        -0.17208
C         18.33152        14.91978        -0.26536
C         18.39012        16.34305         0.23086
C         19.62612        14.15941        -0.07010
C         19.62725        17.03514         0.22809
C         18.44375        19.14381         0.64681
C         19.64935        18.46411         0.43339
C         20.89079         1.99898        -0.12755
C         20.87880         3.45945        -0.19162
C         22.08504         1.30067        -0.10588
C         22.09569         4.19056        -0.12412
C         20.87077         6.29479        -0.15883
C         20.87345         7.68795        -0.05920
C         22.11216         5.58639        -0.10049
C         22.02338         8.35664         0.64283
C         20.84874        10.63054         0.06515
C         20.84525        12.03127         0.05774
C         22.00654         9.88826         0.56042
C         22.09202        12.75606         0.17618
C         20.85588        14.89115         0.05886
C         20.85394        16.32183         0.09886
C         22.08064        14.18278         0.08843
C         22.10168        17.02678         0.14541
C         20.89984        19.15499         0.40894
C         22.10924        18.47848         0.27149
C         23.38761         1.97354        -0.09733
C         23.39608         3.48724        -0.06094
C         24.61951         1.32737        -0.51187
C         24.54140         4.22923        -0.72309
C         23.36344         6.34322        -0.01178
C         23.34377         7.71218         0.26291
C         24.59636         5.64959        -0.22488
C         24.63128         8.40252         0.66709
C         23.35749        10.65148         0.56694
C         23.32515        12.07502         0.23179
C         24.61887         9.91148         0.44721
C         24.55911        12.76925         0.04809
C         23.32289        14.89517         0.01562
C         23.30549        16.32537         0.07053
C         24.53406        14.18043        -0.10199
C         24.61790        17.01601         0.32814
C         23.35799        19.17846         0.25365
C         24.58616        18.52427         0.20115
C         25.83683         2.03985        -0.64030
C         25.85925         3.50152        -0.66828
C         27.04206         1.32257        -0.65910
C         27.03909         4.22684        -0.75631
C         25.83063         6.35780        -0.21674
C         25.83968         7.72618         0.05908
C         27.07286         5.66440        -0.56685
C         27.03235         8.54062        -0.36244
C         25.79414        10.62404         0.25686
C         25.79658        12.04713         0.08708
C         27.09751         9.86110         0.39898
C         27.04729        12.78026         0.02457
C         25.77407        14.85736        -0.62891
C         25.77215        16.38340        -0.43210
C         27.03499        14.17159        -0.14864
C         27.05146        17.14594        -0.35955
C         25.81700        19.22767         0.19366
C         27.05858        18.57725         0.03901
C         28.30734         1.97586        -0.93597
C         28.31292         3.51742        -1.01767
C         29.57527         1.33116        -0.61852
C         29.58915         4.20195        -0.75854
C         28.28792         6.37087        -0.58362
C         28.33563         7.76842        -0.33973
C         29.54841         5.69164        -1.07359
C         29.55771         8.47316        -0.24172
C         28.33217        10.64034         0.00585
C         28.29526        12.04091        -0.00006
C         29.53931         9.89755        -0.12272
C         29.51775        12.78413        -0.35047
C         28.25763        14.96238         0.00811
C         28.31800        16.40412        -0.26383
C         29.59578        14.22390        -0.03018
C         29.52194        17.08682        -0.23706
C         28.29620        19.23560         0.03524
C         29.52313        18.54551        -0.18713
C         30.75867         2.02348        -0.44776
C         30.75918         3.50966        -0.49900
C         31.96929         1.22298        -0.37901
C         31.99260         4.28190        -0.38314
C         30.82451         6.42731        -0.73021
C         30.83225         7.74002        -0.36059
C         32.08764         5.62943        -1.05272
C         32.18589         8.39428        -0.02851
C         30.81394        10.63224        -0.02642
C         30.84964        12.06332        -0.42179
C         32.14254         9.91718        -0.00138
C         32.09414        12.83089        -0.27906
C         30.83213        14.96740        -0.30117
C         30.79156        16.37965        -0.28614
C         32.06580        14.25377        -0.37388
C         32.00286        17.10935        -0.42614
C         30.74238        19.23167        -0.26993
C         31.98645        18.56204        -0.42432
C         33.12058         1.65578         0.26009
C         33.08831         3.82447         0.30369
C         34.46647         1.26814         0.09117
C         34.41761         4.35632         0.19544
C         33.36376         6.36840        -0.72177
C         33.27774         7.84376        -1.01255
C         34.49196         5.74750        -0.21111
C         34.62139         8.56967        -0.87566
C         33.32744        10.71368        -0.33251
C         33.32388        12.11393        -0.26010
C         34.61078        10.02941        -0.58688
C         34.58537        12.85612        -0.26394
C         33.28961        14.99452        -0.46622
C         33.22527        16.40511        -0.55583
C         34.55792        14.29820        -0.36473
C         34.45669        17.17324        -0.76661
C         33.18971        19.28866        -0.51972
C         34.44857        18.64972        -0.63448
C         35.58341         2.11041         0.36724
C         35.57179         3.58075         0.41428
C         36.83459         1.45409         0.38064
C         36.83844         4.28032         0.53087
C         35.77075         6.41158        -0.09012
C         35.88190         7.79115        -0.57971
C         36.89624         5.73474         0.39071
C         37.15460         8.54658        -0.27065
C         35.79558        10.69868         0.06459
C         35.80219        12.19126        -0.15761
C         37.11857        10.02557        -0.18159
C         37.05895        12.89174        -0.13880
C         35.76033        15.00473        -0.26171
C         35.76613        16.44135        -0.56518
C         37.04018        14.34969        -0.11865
C         36.91085        17.26039        -0.09893
C         35.66305        19.33217        -0.72401
C         36.93335        18.66488        -0.59621
C         38.05014         2.13326         0.57073
C         38.02684         3.56441         0.68313
C         39.29029         1.44109         0.61095
C         39.27482         4.24023         1.08604
C         38.13502         6.45915         0.64069
C         38.25721         7.81890         0.38230
C         39.29809         5.74309         1.22259
C         39.48470         8.55122         0.62644
C         38.26925        10.74126         0.03113
C         38.26685        12.19104        -0.06366
C         39.47719        10.02781         0.51795
C         39.55905        12.90781        -0.23252
C         38.22227        15.07687         0.01690
C         38.18203        16.53122         0.28269
C         39.54783        14.44915        -0.39013
C         39.45606        17.33073         0.24284
C         38.13566        19.22873        -0.94181
C         39.42568        18.60978        -0.56563
C         40.50345         2.13029         0.69993
C         40.54431         3.51243         0.90532
C         41.75757         4.26657         0.75515
C         40.66060         6.44877         1.39820
C         40.66226         7.90271         0.95876
C         41.80098         5.62295         0.83607
C         41.91067         8.61996         0.96010
C         40.78483        10.77887         0.63594
C         40.84187        12.19977         0.13543
C         41.99845         9.95594         0.70514
C         41.97042        13.02032         0.59899
C         40.73210        15.11917         0.27475
C         40.78532        16.60478         0.49057
C         41.86358        14.38944         0.68940
C         41.84242        16.99163        -0.50319
C         40.62515        18.93685        -1.34707
C         41.70001        18.06635        -1.38957
O         39.49087        18.59570         0.94909
O         13.57703        15.45819         2.68920
O          3.02495        13.57976        -2.68303
O         37.22346        16.98847         1.30002
O         28.99109        14.57155         1.24468
O         26.24212        17.04252        -1.63650
O         15.17891        13.06100         2.19142
O         11.60985         5.58309         1.52794
O         23.65884         2.80803         1.16688
O         35.28152        16.73580        -1.91003
O         39.02728         4.92108         2.40323
O         34.81592         9.54421        -1.95848
O          5.89034         2.83679         1.89194
O         19.88722         9.20287        -1.73066
O         39.91011        10.65154         1.80080
O         31.50928        10.40129         1.25325
O         22.56536        10.42428         1.80591
O         32.93090         2.72931         1.15624
O         13.09032         3.73976         1.97227
O         28.30396         2.71183        -2.22809
O         36.89103         7.98971        -1.62176
O         30.09874        12.39647        -1.63739
O         10.64384         2.97428        -1.89474
O         10.20534        16.55269         2.59145
O         40.43154        12.31809        -1.27937
O         24.16066         4.29018        -2.14144
H         24.91331         4.67320        -2.64023
O         24.94355        16.73129         1.73248
H         24.23132        17.11156         2.28896
O          9.68064         8.40083         2.26576
H         10.52655         8.77788         2.59177
O         18.31153         3.31507        -2.10387
H         17.49431         2.81823        -2.32183
O         18.11347        15.03207        -1.70952
H         18.19432        14.11541        -2.08466
O         29.42910         5.74753        -2.53475
H         30.30201         5.43335        -2.88792
O          5.78463        10.92478         1.89390
H          5.85872        10.04446         2.32156
O         32.78451         8.05183        -2.35533
H         33.38191         8.72376        -2.77146
O         18.23975        12.30498        -2.04788
H         17.39419        11.87223        -2.33145
O         13.40855        11.17348         2.23562
H         13.83437        11.79485         2.87198
O         32.09766         5.42787        -2.50839
H         32.34850         6.30673        -2.89142
O         35.57123        10.49723         1.50577
H         36.26908        10.98367         1.99490
O         12.83404         4.16930        -1.60708
H         11.50957         3.11406        -2.35805
O         41.20987        16.87373         1.84847
H         40.90285        17.78454         2.06186
O         24.73195         8.18109         2.12592
H         23.82483         7.97968         2.45578
O         40.94580         6.51893         2.82579
H         40.43333         5.78411         3.24330
O          7.99140         3.30513        -1.63937
H          8.82996         3.04077        -2.09380
O         32.58665         7.96248         1.28576
H         32.14071         8.55606         1.93234
O         39.64556        14.73165        -1.82283
H         40.13379        13.96999        -2.21803
O         15.79694        10.92435        -2.00919
H         15.86138        10.05993        -2.47245
O         26.79480         8.89203        -1.76533
H         26.97665         8.09892        -2.31343
O         21.82139         8.02415         2.07615
H         21.94573         8.86122         2.58476
O         27.26136         9.52069         1.79755
H         27.09720        10.32024         2.33856
O         13.17037        11.28943        -1.40675
H         14.03330        11.32509        -1.88886
O         25.73128        14.60864        -2.06976
H         26.05296        15.43543        -2.50601
H          0.15847         1.54841        -0.32296
H          0.09416         4.01101        -0.28394
H          2.30082         0.31654        -0.08487
H          0.08383         5.96466        -0.27783
H          0.16162         8.37006        -0.62528
H          0.43628        10.03232        -1.65490
H          0.85345        12.22648        -2.75849
H          1.00022        15.14524        -2.91477
H          0.75809        17.42529        -1.87220
H          1.75762        19.28123        -0.66040
H          4.73609         0.34351        -0.04369
H          3.77525        20.37052         0.29897
H          7.34866         0.31699         0.88112
H          6.19709        20.30486         0.69028
H          9.78398         0.47447         0.96650
H          8.62635        20.27992         0.89612
H         12.14693         0.32550         0.42032
H         11.10677        20.22288         1.15576
H         14.68198         0.22779         0.05249
H         13.54619        20.18873         1.24791
H         17.16754         0.21459         0.17870
H         15.99705        20.21729         1.05021
H         19.63653         0.23297         0.17398
H         18.45098        20.23637         0.77588
H         22.07006         0.20096        -0.14933
H         20.90181        20.24881         0.52885
H         24.62579         0.23684        -0.65825
H         23.33703        20.27929         0.25926
H         27.03978         0.25265        -0.40291
H         25.79791        20.32522         0.28058
H         29.56918         0.24072        -0.46973
H         28.32864        20.32175         0.21037
H         31.98013         0.27367        -0.93502
H         30.74048        20.33085        -0.21706
H         34.68142         0.26635        -0.31189
H         33.15212        20.38750        -0.47538
H         36.85389         0.35874         0.27736
H         35.65977        20.42802        -0.82366
H         39.29147         0.34851         0.49070
H         38.16493        20.22745        -1.40362
H         41.44910         1.57894         0.59078
H         42.66834         3.71084         0.48237
H         42.76655         6.12378         0.67585
H         42.83912         8.05037         1.10373
H         42.98120        10.42984         0.56991
H         42.84556        12.51577         1.03104
H         42.68701        14.95004         1.15564
H         42.77379        16.40933        -0.52370
H         40.58810        19.80060        -2.02634
H         42.52939        18.28539        -2.07909
