         248
 CSIRO Nanostructure Databank - Neutral Graphene Oxide Data Set
C         30.27153        31.46253        -0.07477
C         30.52259        32.70951         0.05557
C         30.34135        35.95202        -0.26702
C         30.27914        37.19133        -0.37847
C         30.33093        40.42730        -0.38358
C         30.23478        41.63069        -0.12826
C         32.68466        28.89366         0.46877
C         31.47835        29.19916         0.18503
C         32.87630        31.61202         0.98036
C         30.95512        30.43894         0.60381
C         32.76236        33.11321         0.92580
C         31.47510        33.69054         0.23066
C         32.64581        35.86547         0.20350
C         31.44725        35.10181         0.10975
C         32.58462        37.38818         0.21399
C         31.47638        38.01486        -0.78217
C         32.72670        40.29928        -0.15545
C         31.48528        39.53479        -0.59078
C         32.60793        41.71636         0.42805
C         31.40083        42.57736        -0.19205
C         32.61990        44.41587         0.76256
C         31.52044        43.86149         0.62377
C         35.38702        27.31834         0.32743
C         35.22674        28.71782         0.35810
C         33.98438        29.40875         0.50888
C         35.19971        31.52809         0.07227
C         33.97611        30.85625         0.60292
C         35.17657        33.03401        -0.02312
C         33.96762        33.80341         0.34734
C         35.17850        35.92886         0.06599
C         33.90528        35.17691         0.19512
C         35.17005        37.36403        -0.34139
C         33.89224        38.09471        -0.15568
C         35.26760        40.25511        -0.15789
C         33.98966        39.54387         0.28214
C         35.26864        41.72799         0.06689
C         33.98031        42.46504         0.34665
C         35.25570        44.72542         0.27226
C         33.95397        43.99880         0.29803
C         35.55139        45.98609         0.96406
C         37.77332        27.25607         0.17816
C         36.48503        26.71000         0.22208
C         37.74392        28.68031         0.20127
C         36.50379        29.39691         0.27701
C         37.70806        31.55207         0.02637
C         36.51124        30.83342         0.15195
C         37.65667        33.00201        -0.06173
C         36.47689        33.70909        -0.04781
C         37.64628        35.91575        -0.56221
C         36.46810        35.18897        -0.00510
C         37.62857        37.40130        -0.52659
C         36.46485        38.10386        -0.37471
C         37.74146        40.26550        -0.48794
C         36.44618        39.57127        -0.37737
C         37.80835        41.70486        -0.23541
C         36.54086        42.47370        -0.23440
C         37.89045        44.50042         0.53821
C         36.59139        43.96643         0.03315
C         37.95289        45.70083         1.30708
C         36.63920        46.26159         1.48392
C         40.27862        24.52983         0.51153
C         39.17718        25.09993         0.44845
C         40.24673        27.24841         0.56596
C         39.04222        26.51259        -0.09954
C         40.22320        28.71498         0.14669
C         39.01901        29.40554         0.09647
C         40.19985        31.58582         0.04803
C         39.00424        30.86735         0.02960
C         40.21584        33.06224         0.09557
C         38.91855        33.78065         0.00825
C         40.20499        35.99164        -0.26467
C         38.94332        35.17816        -0.52632
C         40.17569        37.32703        -1.00664
C         38.88399        38.09607        -0.89021
C         40.22385        40.21135        -0.50298
C         38.90421        39.56116        -0.72951
C         40.27307        41.71261        -0.62571
C         39.01032        42.38769        -0.16140
C         40.34604        44.30863         0.69201
C         39.07992        43.75640         0.31460
C         40.38558        45.48931         1.46101
C         39.17143        46.15580         1.81935
C         40.48135        47.74467         3.15612
C         39.43386        47.23946         2.72490
C         42.92336        24.56958         0.38287
C         41.59478        25.10813         0.46719
C         42.80354        27.27553         0.09920
C         41.56446        26.50010         0.32790
C         42.75766        28.73808         0.42960
C         41.50164        29.42328        -0.01630
C         42.77533        31.67126         0.34591
C         41.52291        30.94163        -0.03775
C         42.59354        33.16045         0.62699
C         41.52553        33.72012        -0.33819
C         42.72880        35.93590        -0.46392
C         41.49480        35.22684        -0.39753
C         42.74544        37.29597        -0.87484
C         41.49904        38.06930        -1.24871
C         42.79721        40.20702        -0.73365
C         41.51399        39.45945        -0.61247
C         42.79298        41.63579        -0.45402
C         41.57502        42.30855        -0.16817
C         42.84375        44.29337         0.42530
C         41.59925        43.62020         0.33893
C         42.86719        45.64010         1.05657
C         41.70286        45.97541         1.95879
C         43.11602        47.78713         2.84659
C         41.80557        47.14632         2.98167
C         44.00512        25.18443         0.40579
C         45.36156        27.41672         0.47734
C         44.18564        26.60589         0.12386
C         45.33367        28.82917         0.58874
C         44.01564        29.52682         0.62516
C         45.23516        31.73246         0.75035
C         43.98511        31.02285         0.54267
C         45.21545        33.20277         0.88123
C         43.89505        33.96459         0.64822
C         45.23256        35.89694        -0.30306
C         43.94389        35.27461        -0.01982
C         45.28733        37.32079        -0.88136
C         44.00568        38.03705        -1.27818
C         45.24137        40.21593        -0.91000
C         43.98620        39.51468        -0.89437
C         45.21387        41.70970        -1.18565
C         44.00839        42.37360        -0.51820
C         45.18557        44.66170        -0.46188
C         44.01758        43.72578        -0.13962
C         45.43122        45.61831         0.77347
C         44.18103        46.37321         1.16536
C         44.12470        47.29947         2.31321
C         47.69738        27.55272         0.82936
C         46.65952        26.87926         0.64521
C         47.80989        28.96118         0.88795
C         46.52461        29.61002         0.75940
C         47.74419        31.79377         0.84136
C         46.48701        31.05662         0.79000
C         47.77931        33.21317         0.72447
C         46.51145        33.95987         0.78798
C         47.77081        36.05725        -0.07562
C         46.50133        35.39591         0.30264
C         47.73440        37.41064        -0.45759
C         46.50813        38.10100        -0.69078
C         47.70451        40.26061        -1.13022
C         46.44869        39.52813        -0.80807
C         47.72379        41.74125        -0.96918
C         46.52691        42.41270        -0.88997
C         47.78645        44.54434        -0.46721
C         46.49048        43.92786        -1.02035
C         47.56045        45.83839        -0.01840
C         46.60947        46.56063         0.40395
C         50.31993        29.17329         1.15139
C         48.99952        29.68615         1.01902
C         50.23942        31.85278         1.00331
C         49.00056        31.12048         0.98161
C         50.22695        33.19474         0.62330
C         48.98903        33.91544         0.55030
C         50.19850        36.06995         0.31214
C         49.00310        35.36645         0.26251
C         50.25962        37.49304        -0.10735
C         48.99521        38.19275        -0.49706
C         50.30038        40.32399        -1.44858
C         48.99569        39.50978        -1.23805
C         50.25257        41.68781        -0.72827
C         49.01807        42.38892        -0.71381
C         50.23410        44.27637         0.03034
C         48.96384        43.79827        -0.36707
C         51.45795        29.67270         1.15956
C         52.69286        31.93100         0.94616
C         51.56824        31.14302         1.53470
C         52.63217        33.11659         0.62871
C         51.49504        33.98236         0.21901
C         52.58770        36.24377         0.57538
C         51.43456        35.34398         0.90675
C         52.65187        37.31363        -0.02397
C         51.55983        38.07364        -0.64358
C         52.71148        40.36128        -1.01429
C         51.58110        39.44865        -1.20628
C         52.63538        41.48765        -0.49095
C         51.49371        42.34068        -0.37722
C         51.33831        43.67722         0.04595
O         39.60609        33.66177         1.29870
O         36.02407        35.76184         1.27410
O         36.57797        43.44775        -1.32755
O         34.83153        42.05538         1.46405
O         51.63412        38.30118        -2.06871
O         40.87890        39.63082         0.68730
O         34.40566        44.67584        -0.88839
O         41.91097        45.78136         3.40588
O         34.33312        37.74495        -1.49352
O         32.38336        40.17850        -1.55919
O         31.80778        31.01456         1.67342
O         43.55143        26.99244        -1.12705
O         45.48004        36.14511        -1.74559
O         48.17015        39.64390        -2.41984
O         40.27296        41.90335        -2.13551
O         34.95344        32.17587        -1.22586
O         41.67563        30.13814        -1.27274
O         46.50780        35.08731         1.72596
O         43.23148        46.75141         0.13388
O         43.17819        29.05177         1.78943
O         39.35230        37.48468        -2.17451
O         49.59503        38.40936         0.84333
O         38.22373        35.30875        -1.77561
O         44.45635        33.78938         1.99719
O         46.53996        44.12729        -2.45265
H         46.05114        44.96763        -2.64121
O         32.13229        37.79536         1.51194
H         32.83130        37.61296         2.17488
O         45.00261        41.84518        -2.62028
H         45.41620        42.69889        -2.90347
O         51.45291        34.16124        -1.19190
H         52.24104        34.67562        -1.46727
O         44.75254        45.48364        -1.56021
H         44.02712        46.08573        -1.25162
O         50.39974        40.67437        -2.83405
H         49.51670        40.51826        -3.24956
O         40.13105        36.36402         1.14867
H         40.13222        35.52191         1.66890
O         34.05645        39.47637         1.72165
H         34.05845        40.40201         2.07259
O         39.98495        27.22581         1.98868
H         40.73448        27.65075         2.45624
O         45.80235        44.81249         1.87830
H         45.91800        45.38563         2.66593
O         41.88536        33.23765        -1.65622
H         41.24015        33.57325        -2.31322
O         32.64371        33.55425         2.30784
H         32.03101        32.93031         2.75712
O         51.26382        35.15536         2.29402
H         51.18040        36.02721         2.73172
O         41.55547        38.39330        -2.65341
H         41.57794        37.56652        -3.17706
O         31.76966        37.71840        -2.11879
H         32.19134        38.49998        -2.54135
O         40.23658        43.32992        -2.38288
H         39.35877        43.45211        -2.82126
O         51.55551        31.26547         2.92616
H         52.40121        30.93714         3.29324
O         42.02089        33.22863         1.94644
H         42.77328        33.23860         2.58508
O         44.04198        38.05455        -2.73773
H         44.47964        37.22088        -3.02449
O         31.67725        42.87922        -1.51711
H         30.90408        43.30197        -1.94217
O         32.31100        41.53195         1.81295
H         32.11656        42.40643         2.21614
O         39.24617        26.48112        -1.50118
H         38.44746        26.12116        -1.93878
