         294
 CSIRO Nanostructure Databank - Neutral Graphene Oxide Data Set
C          1.25114         2.25626        -1.43319
C          0.99210         3.39421        -0.70015
C          2.52521         1.66062        -1.47261
C          2.03752         4.04930         0.10044
C          1.11214         6.36503        -0.24442
C          1.16807         7.81059        -0.06589
C          1.85694         5.48125         0.48414
C          2.33499         8.52153        -0.03618
C          1.11904        10.79805         0.12826
C          1.14142        12.10090        -0.18690
C          2.35814         9.98407         0.42164
C          2.40470        12.88386        -0.46038
C          1.18403        15.12980        -0.15478
C          1.15775        16.46979         0.00417
C          2.40359        14.33929         0.00008
C          2.30062        17.18984         0.66951
C          2.43119        18.66478         0.33175
C          3.62592         2.19856        -0.75339
C          3.44340         3.46731         0.01414
C          4.83456         1.53285        -0.68578
C          4.70781         4.24746         0.22496
C          3.80303         6.44568        -0.69250
C          3.63246         7.85307        -0.18596
C          4.83877         5.60379         0.01332
C          4.82253         8.50992        -0.03733
C          3.59772        10.73436         0.01939
C          3.63174        12.09429        -0.05686
C          4.90479        10.00678        -0.18534
C          4.91241        12.79373         0.04456
C          3.59433        14.96420         0.25256
C          3.62436        16.43786         0.51629
C          4.88631        14.28021        -0.19433
C          4.87717        17.19160         0.18392
C          3.56542        19.31400         0.03036
C          4.85398        18.61776        -0.34095
C          5.89052         1.89537         0.32162
C          5.90491         3.44131         0.59287
C          7.25205         1.40735        -0.12097
C          7.22425         4.16807         0.65680
C          6.09176         6.31613         0.20254
C          6.13749         7.77668        -0.22099
C          7.25953         5.63149         0.45436
C          7.31349         8.53149         0.37183
C          6.00963        10.64938         0.64894
C          6.06513        12.13272         0.33216
C          7.32534         9.90630         0.51416
C          7.36313        12.82164         0.66297
C          6.09357        14.99694         0.43319
C          6.16819        16.43781        -0.11265
C          7.41304        14.28290         0.31419
C          7.33587        17.20761         0.47277
C          6.14664        19.33994         0.00778
C          7.33592        18.68144         0.24712
C          8.43913         1.90248         0.62925
C          8.48006         3.44595         0.18838
C          9.79032         1.23627         0.45233
C          9.74442         4.12067         0.72970
C          8.55651         6.30383         0.45395
C          8.52966         7.77602         0.64370
C          9.74389         5.62549         0.46099
C          9.87099         8.54868         0.72269
C          8.58121        10.62688         0.48036
C          8.56901        12.08810         0.08045
C          9.79215         9.97883         0.44091
C          9.89381        12.78626         0.50115
C          8.61287        14.96898         0.37201
C          8.60904        16.44642         0.58812
C          9.87146        14.27793         0.26392
C          9.94201        17.16602         0.61598
C          8.61041        19.33518         0.25584
C          9.83830        18.65205         0.29190
C         11.01610         1.92790         0.53322
C         11.01446         3.42154         0.20622
C         12.22320         1.25856         0.77358
C         12.24256         4.13974         0.72963
C         11.05842         6.33576         0.14696
C         11.11393         7.80968         0.45165
C         12.27944         5.62667         0.71441
C         12.34337         8.48784         0.30488
C         10.99051        10.59706        -0.24637
C         11.06062        12.11041        -0.15150
C         12.30056        10.01351         0.33229
C         12.18872        12.81800        -0.51652
C         11.04018        14.96050        -0.13798
C         10.97415        16.45050        -0.24641
C         12.21190        14.26327        -0.51513
C         12.21583        17.22667        -0.56199
C         11.05231        19.33647         0.13162
C         12.28645        18.65374        -0.13135
C         13.52816         1.96035         1.11233
C         13.49681         3.36198         0.54053
C         14.79678         1.25724         0.65254
C         14.72298         4.07256         0.12093
C         13.64208         6.35087         0.70091
C         13.56569         7.80213         0.25698
C         14.68478         5.55968        -0.09518
C         14.92073         8.49690         0.21652
C         13.49450        10.61160        -0.40235
C         13.41510        12.04109        -0.86172
C         14.83274         9.99426        -0.11692
C         14.67715        12.80034        -1.17250
C         13.37448        15.01147        -1.17544
C         13.48140        16.47593        -0.74895
C         14.70096        14.28413        -1.00218
C         14.66539        17.12267        -0.63035
C         13.49892        19.29331        -0.09788
C         14.74862        18.64096        -0.61691
C         15.94188         1.91692         0.37287
C         16.03324         3.43155         0.50149
C         17.21944         1.19479        -0.00375
C         17.26016         4.06604        -0.15200
C         15.92920         6.23242        -0.56796
C         15.97304         7.74074        -0.64529
C         17.23677         5.45701        -0.81215
C         17.26692         8.41627        -0.99386
C         16.05763        10.69107        -0.59486
C         15.96740        12.06021        -1.23305
C         17.27612         9.90462        -0.93076
C         17.25666        12.89723        -1.26442
C         15.87574        14.92088        -0.76632
C         15.99124        16.42830        -0.83171
C         17.08925        14.09783        -0.32497
C         17.03701        16.91375         0.21093
C         16.00303        19.17254         0.03985
C         17.06954        18.41606         0.34865
C         18.43900         1.96617         0.53648
C         18.42814         3.39393        -0.00066
C         19.74400         1.26324         0.21680
C         19.71299         4.12845         0.07354
C         18.48707         6.30608        -0.51056
C         18.55028         7.65730        -0.75904
C         19.77184         5.55910        -0.34653
C         19.84246         8.37649        -0.53646
C         18.30266        10.64066        -1.41793
C         18.43956        12.02031        -0.88908
C         20.18569         9.54940        -1.13000
C         19.70677        12.56576        -0.30926
C         18.42490        14.83597        -0.29553
C         18.41393        16.30946        -0.07615
C         19.68050        14.05404         0.01683
C         19.65333        16.99372         0.37249
C         18.25067        18.97588         1.10914
C         19.58444        18.34014         0.77502
C         20.91981         1.91205         0.18985
C         20.97866         3.38360         0.36247
C         22.25954         4.13433         0.33571
C         21.05565         6.27410        -0.04528
C         20.88257         7.73542         0.37532
C         22.26161         5.48033         0.33461
C         22.18976         8.49715         0.42375
C         21.37743        10.44273        -0.90976
C         21.08455        11.84578        -0.15404
C         22.41904         9.69876        -0.11733
C         22.21704        12.79884        -0.50382
C         20.95188        14.83623         0.13612
C         20.90230        16.33179         0.26611
C         22.17650        14.12852        -0.31142
C         22.07294        17.06430         0.50875
C         20.77293        19.04603         1.01516
C         22.00818        18.41848         0.84822
O          3.40160         6.09584        -1.79768
O         20.27981        14.25544         1.33782
O          9.15744         8.12778         1.92834
O         19.34871        10.06987        -2.14262
O         20.70737         5.92606        -1.42616
O         18.69557        11.93235         0.54763
O         13.24259        10.91717        -1.80279
O         15.63974        10.78231         0.81813
O         20.16652         3.91621         1.48847
O         12.07574         4.89904         1.96525
O         13.91256         3.35867        -0.87255
O          2.61862         3.27617         1.22002
O         18.59691        15.74053        -1.41798
O         16.28203         8.04165        -2.04496
O         15.22198        12.27589        -2.45759
O          7.79416        16.79401         1.80025
O          6.53955         3.75642         1.87072
O         11.17253        16.98875        -1.57962
O          4.51217        16.98825         1.57602
O         14.83794         5.84935        -1.50026
O          8.45436        12.15374        -1.35209
H          9.14105        11.56097        -1.73950
O          5.52723         1.25673         1.56815
H          6.27394         1.42936         2.19146
O         11.22336         6.22084        -1.30563
H         10.57071         6.80831        -1.74210
O         10.10288        12.54811         1.93435
H          9.23052        12.70000         2.38196
O         17.98602        18.68494         2.50695
H         18.80044        18.87552         3.01818
O          6.47170        16.44111        -1.52664
H          5.95642        15.71369        -1.96255
O         10.77614        10.22101        -1.63545
H         11.59028        10.48259        -2.14103
O         14.86229        19.04166        -2.03990
H         13.99424        18.86409        -2.46331
O          4.84606        18.55941        -1.79847
H          5.58564        17.95395        -2.06159
O          2.45508         9.92174         1.88701
H          3.40808         9.86216         2.12536
O         17.50126        13.36263        -2.59219
H         16.63996        13.33756        -3.07533
O         16.18469         3.73325         1.91473
H         16.92928         3.16902         2.25064
O          2.53072        12.98825        -1.93402
H          2.64766        12.07765        -2.28331
O          5.22892        10.23079        -1.59174
H          5.89507         9.55143        -1.86190
O         17.31772         1.08521        -1.42982
H         17.19104         1.97588        -1.82046
O         21.19057        11.54411         1.24975
H         20.88610        12.34650         1.73768
O          7.44738        12.76252         2.13582
H          6.80847        13.45850         2.44895
O          9.68190         3.95997         2.16504
H         10.49062         4.38841         2.54840
O          4.89568        14.41780        -1.64847
H          4.09680        13.92654        -1.98659
O          8.43972         3.54015        -1.23311
H          9.36198         3.48167        -1.58997
O         10.45292        17.06912         1.97100
H          9.69167        17.23366         2.57179
O         16.61743        16.39411         1.50825
H         16.98471        17.00199         2.19603
O         12.37370        10.42415         1.71635
H         11.66371        11.08296         1.90591
O          5.61930        10.52844         2.04720
H          6.26571        11.06083         2.56673
O          2.50442         5.83921         1.62239
H          2.84032         5.00597         2.03566
O         17.30236         5.18436        -2.23574
H         16.88524         5.94540        -2.70000
O         20.37263         7.67661         1.73124
H         20.31706         8.59277         2.07607
O          1.96939        17.15994         2.09013
H          2.81749        17.30132         2.56968
O         21.90993        10.77176        -2.20667
H         21.17080        10.72168        -2.85266
O         16.42122        16.77101        -2.16780
H         16.12232        17.69479        -2.35497
O          5.84481        14.96148         1.86931
H          6.39545        15.68264         2.26855
O          6.41465         7.74678        -1.67377
H          5.69152         7.23603        -2.10229
O         11.06727         3.52939        -1.23886
H         12.01153         3.46206        -1.52078
O         13.56505         2.07095         2.56095
H         13.69761         1.17567         2.93491
O         13.06900        15.02035        -2.59813
H         13.83140        15.42078        -3.06647
O         15.48975         8.38659         1.54560
H         15.77788         9.29345         1.81637
O         16.77771        13.62625         0.99411
H         16.65335        14.42179         1.56501
O          8.18482         1.78401         2.03977
H          8.74972         2.45401         2.50203
O         18.31519         2.01619         1.98709
H         19.05666         2.60094         2.28963
O         14.14940         6.31534         2.04721
H         13.63759         6.94197         2.59880
H          0.43795         1.79979        -2.01540
H          0.00022         3.86526        -0.75078
H          2.67336         0.73459        -2.04599
H          0.52161         5.97767        -1.08861
H          0.20643         8.35063        -0.02713
H          0.14246        10.31595         0.29060
H          0.18267        12.62040        -0.34047
H          0.29250        14.61940        -0.54717
H          0.23634        17.03368        -0.20368
H          1.51918        19.25788         0.50974
H          4.92876         0.56151        -1.19609
H          3.54031        20.40730        -0.10486
H          7.39047         1.20750        -1.19796
H          6.17509        20.42692        -0.17274
H          9.81003         0.18284         0.78367
H          8.63093        20.42246         0.07932
H         12.18215         0.16755         0.93137
H         11.05517        20.43770         0.12884
H         14.78379         0.15511         0.60610
H         13.55013        20.35324         0.19474
H         17.21483         0.15558         0.40888
H         16.03665        20.25934         0.22277
H         19.71446         0.17310         0.06862
H         18.31001        20.09232         0.97407
H         21.85844         1.37271        -0.00880
H         23.19400         3.57220         0.48335
H         23.21409         6.02134         0.44161
H         22.98595         8.02922         1.02378
H         23.39956        10.18164         0.01030
H         23.15402        12.34754        -0.86250
H         23.06253        14.73396        -0.55559
H         23.05348        16.57264         0.44498
H         20.72691        20.10066         1.32444
H         22.93511        18.98084         1.02464
