         429
 CSIRO Nanostructure Databank - Neutral Graphene Oxide Data Set
C          1.53740         3.69920        -2.42836
C          0.42479         4.46120        -2.76187
C          1.47697         6.47150        -1.84990
C          0.39182         5.83178        -2.48867
C          1.45463         7.89757        -1.54757
C          0.30796         8.65142        -1.68307
C          1.38381        10.71931        -0.89299
C          0.28117        10.04160        -1.41746
C          1.29234        12.09900        -0.45296
C          0.12780        12.86943        -0.64716
C          1.14999        14.91442         0.23446
C          0.07967        14.23950        -0.34930
C          1.14257        16.33595         0.46015
C         -0.02107        17.13538         0.08613
C          0.99540        19.17521         1.07297
C         -0.07565        18.46701         0.28144
C          1.04124        20.67041         0.82494
C         -0.15696        21.40541         0.83438
C          1.04916        23.51159         0.59921
C         -0.16000        22.78750         0.68450
C          1.08027        24.97475         0.47529
C         -0.11869        25.72943         0.53153
C          1.07455        27.84754         0.25901
C         -0.12624        27.10817         0.42865
C          1.08764        29.28033         0.16447
C         -0.11794        30.05908         0.15491
C          1.12311        32.17845         0.02492
C         -0.10121        31.42624         0.08366
C          1.12635        33.58658         0.02462
C         -0.07517        34.38770         0.05273
C          1.18493        36.52580         0.50627
C         -0.05401        35.73512         0.18781
C          1.20583        37.87437        -0.16761
C          3.84810         3.54395        -1.58122
C          2.65116         4.30108        -1.78959
C          3.69614         6.29762        -0.71182
C          2.60151         5.69075        -1.48331
C          3.81154         7.77070        -0.59967
C          2.75909         8.61869        -1.27839
C          3.67025        10.58925         0.00095
C          2.60636         9.99188        -0.65230
C          3.61909        11.98996         0.35480
C          2.42849        12.70723         0.15097
C          3.62384        14.81659         0.70858
C          2.30275        14.08401         0.76063
C          3.59450        16.28876         0.89273
C          2.29573        17.01052         0.89283
C          3.51861        19.14096         0.92200
C          2.32521        18.45187         0.94927
C          3.52416        20.58320         0.61391
C          2.25807        21.36418         0.71004
C          3.52972        23.53169         0.69130
C          2.25817        22.77887         0.64852
C          3.55100        24.96248         0.31319
C          2.30471        25.67145         0.28790
C          3.52132        27.81636         0.02675
C          2.30508        27.11518         0.17275
C          3.55180        29.23332         0.04276
C          2.32508        29.97372         0.08560
C          3.60325        32.06006         0.01813
C          2.35952        31.41034         0.02480
C          3.66695        33.52850        -0.07195
C          2.39741        34.32883        -0.04778
C          3.68439        36.45991         0.23044
C          2.47337        35.77890         0.25358
C          3.67844        37.89470        -0.12516
C          2.37431        38.48717        -0.43041
C          6.27150         3.48581        -1.13677
C          5.01046         4.11935        -1.06903
C          6.18801         6.19244        -0.18255
C          4.93944         5.46057        -0.45347
C          6.05665         7.53311         0.51431
C          4.87754         8.34758         0.01083
C          6.09816        10.44557         0.76864
C          4.77496         9.73826         0.59306
C          6.01611        11.86141         1.13976
C          4.80764        12.64972         0.85518
C          6.08415        14.76103         1.15542
C          4.86318        14.04395         1.01293
C          6.13398        16.22506         1.54278
C          4.80861        16.98631         1.41929
C          6.11592        19.12750         0.96142
C          4.81256        18.47134         1.23969
C          6.13879        20.63573         0.98936
C          4.83276        21.28343         0.53717
C          5.99745        23.44771         0.07846
C          4.81613        22.77536         0.67750
C          6.01983        24.92280         0.10478
C          4.78188        25.61597         0.12012
C          6.03143        27.79675         0.04734
C          4.77573        27.05855        -0.32393
C          6.05163        29.19096         0.03101
C          4.80697        29.93428         0.01091
C          6.10065        32.05785         0.00714
C          4.83435        31.33932         0.03359
C          6.14466        33.45029         0.18986
C          4.87513        34.18408         0.54003
C          6.13519        36.24502         0.63777
C          4.93386        35.68573         0.32455
C          6.13624        38.32400        -0.11765
C          4.77511        38.67835        -0.44471
C          8.70202         3.52707        -0.79393
C          7.45582         4.17844        -0.80987
C          8.65322         6.39175        -0.41549
C          7.38416         5.58499        -0.41832
C          8.54723         7.67888         0.36793
C          7.35607         8.32596         0.55460
C          8.55050        10.51765         0.94877
C          7.31022         9.76480         0.85223
C          8.59100        11.91108         0.97092
C          7.35574        12.64963         1.23200
C          8.56003        14.81702         0.94981
C          7.32895        14.10616         1.08968
C          8.52430        16.26259         0.81502
C          7.31210        16.95850         0.91685
C          8.50165        19.04438         0.13811
C          7.27087        18.39436         0.76474
C          8.53685        20.55721         0.21952
C          7.35355        21.25275         0.31722
C          8.51832        23.44939        -0.32439
C          7.26094        22.67274        -0.10012
C          8.51101        24.90540        -0.05371
C          7.27909        25.57846         0.09781
C          8.58573        27.76119         0.15040
C          7.25993        27.03820         0.29038
C          8.51679        29.15793        -0.31817
C          7.28846        29.91506        -0.09024
C          8.57939        32.02768        -0.26013
C          7.32332        31.32044        -0.15124
C          8.55369        33.44626        -0.12412
C          7.37949        34.13520         0.17581
C          8.57336        36.38639        -0.09160
C          7.47312        35.57669         0.62037
C          8.54837        37.76880        -0.48562
C          7.31114        38.51121        -0.78656
C         11.11820         3.46766        -0.23689
C          9.89475         4.19330        -0.39005
C         11.09548         6.25073         0.18244
C          9.88722         5.58057        -0.12024
C         11.09930         7.65345         0.44713
C          9.82061         8.30744         0.75192
C         11.09923        10.52799         0.82941
C          9.83246         9.80257         1.02896
C         11.06873        11.95985         0.80286
C          9.82462        12.65365         0.88194
C         11.04332        14.79390         0.86903
C          9.79670        14.08882         0.88777
C         11.01538        16.26161         0.99175
C          9.77246        17.00193         0.71773
C         11.04469        19.10902         0.34310
C          9.80507        18.37082         0.50332
C         11.01259        20.54308         0.08637
C          9.79795        21.22742        -0.01308
C         11.05488        23.44729        -0.08636
C          9.81049        22.68433        -0.28897
C         11.02818        24.86181        -0.06878
C          9.77761        25.59449        -0.05761
C         11.06208        27.72806        -0.06002
C          9.82735        27.00083        -0.05785
C         11.08267        29.14841        -0.11676
C          9.85805        29.89150        -0.44329
C         11.08068        32.00768        -0.16857
C          9.82905        31.34326        -0.30669
C         11.09367        33.46636        -0.37894
C          9.78103        34.21382        -0.36417
C         11.02487        36.34391        -0.44009
C          9.78696        35.68457        -0.24011
C         11.02487        37.75739        -0.67785
C          9.76496        38.39721        -0.80921
C         13.53075         3.25778         0.34334
C         12.29702         4.09775         0.10341
C         13.52920         6.23700         0.47514
C         12.32372         5.52199         0.27538
C         13.53935         7.64574         0.51185
C         12.30313         8.36684         0.57262
C         13.54869        10.53584         0.58432
C         12.30247         9.81620         0.69132
C         13.53368        11.96941         0.61764
C         12.30377        12.67970         0.72883
C         13.52120        14.84873         0.62727
C         12.27640        14.11569         0.78470
C         13.51932        16.23076         0.49781
C         12.33161        17.02895         0.78248
C         13.51561        19.12537         0.06591
C         12.27615        18.44178         0.36503
C         13.46431        20.55398        -0.13092
C         12.26551        21.26293        -0.06456
C         13.48160        23.46258        -0.10897
C         12.27191        22.73032        -0.09467
C         13.49594        24.87551         0.03355
C         12.26039        25.58474         0.03834
C         13.51332        27.72593         0.30181
C         12.28880        27.01089         0.08375
C         13.48591        29.14205         0.33749
C         12.28766        29.86278         0.08964
C         13.54785        32.03705         0.09188
C         12.28878        31.31117         0.00386
C         13.54818        33.51050         0.01149
C         12.31561        34.23923        -0.13911
C         13.49371        36.42330        -0.15857
C         12.26299        35.62689        -0.27576
C         13.50057        37.81924        -0.65406
C         12.25500        38.45003        -0.86555
C         15.99297         3.38896         0.10276
C         14.82908         4.03322         0.32227
C         15.96396         6.24584         0.05803
C         14.82563         5.50023         0.72414
C         15.97197         7.71455         0.15943
C         14.79164         8.39026         0.41433
C         16.01975        10.55424         0.32618
C         14.77144         9.83914         0.42733
C         16.02232        11.98688         0.46116
C         14.77661        12.68688         0.54494
C         16.00800        14.79650         0.52656
C         14.77418        14.10506         0.52822
C         15.97622        16.26885         0.59243
C         14.75405        16.92500        -0.01036
C         16.01730        19.10341         0.00045
C         14.74234        18.43153         0.07994
C         16.03019        20.53699        -0.38171
C         14.71262        21.25783        -0.50408
C         16.02905        23.47747        -0.29929
C         14.72500        22.75238        -0.45971
C         15.98820        24.84453         0.30915
C         14.72190        25.61082         0.25303
C         16.01685        27.65247         1.03613
C         14.74503        26.98519         0.45847
C         15.99216        29.19467         0.92020
C         14.71273        29.91302         0.62310
C         16.00908        32.11881         0.60336
C         14.73100        31.35400         0.29912
C         16.00106        33.42491        -0.15262
C         14.74636        34.19400        -0.05779
C         16.04354        36.33021        -0.53547
C         14.81016        35.65637        -0.09753
C         15.99893        37.76073        -0.77673
C         14.73519        38.45422        -0.82832
C         18.52447         3.39693        -0.30297
C         17.31989         4.08215         0.30054
C         18.50599         6.28222        -0.22435
C         17.23926         5.52000        -0.17541
C         18.49502         7.68496        -0.16966
C         17.19123         8.43618        -0.35335
C         18.47787        10.55877         0.12669
C         17.23188         9.87415         0.08863
C         18.49499        11.97620         0.33229
C         17.25488        12.69394         0.46026
C         18.49020        14.87125         0.50055
C         17.25283        14.12746         0.54949
C         18.51887        16.26158         0.38505
C         17.26796        17.02157         0.55462
C         18.52508        19.14409         0.19089
C         17.22048        18.44506         0.17848
C         18.55286        20.62948         0.05276
C         17.26212        21.33501        -0.15944
C         18.57995        23.42012         0.15407
C         17.27145        22.68957        -0.11670
C         18.43341        24.86660        -0.34191
C         17.29531        25.57065         0.36691
C         18.48794        27.70902         0.31859
C         17.30167        27.03982         0.48860
C         18.59342        29.15265         0.68180
C         17.31028        29.93446         0.80780
C         18.52397        32.05093         0.18514
C         17.30363        31.35755         0.42606
C         18.54466        33.46565        -0.09524
C         17.27766        34.14873        -0.40923
C         18.48464        36.29808        -0.73609
C         17.25504        35.62048        -0.59246
C         18.48598        37.72226        -1.23193
C         17.17832        38.43192        -1.05862
C         19.65732         4.10198        -0.50450
C         20.92468         6.26136        -0.32668
C         19.71132         5.55196        -0.32350
C         20.92570         7.64620        -0.20116
C         19.72278         8.38499        -0.13599
C         20.91569        10.55363         0.09357
C         19.71794         9.84343         0.00003
C         20.92382        11.93959         0.28661
C         19.73702        12.66151         0.38143
C         20.88635        14.82504        -0.18283
C         19.81068        14.14838         0.63610
C         20.85000        16.14965        -0.43021
C         19.71349        16.96529        -0.03525
C         20.88714        19.10745        -0.56745
C         19.74011        18.36530        -0.14601
C         20.90795        20.48192        -0.71303
C         19.78527        21.31474        -0.42401
C         20.87547        23.52640        -0.87320
C         19.76719        22.71262        -0.48728
C         20.86994        24.90811        -0.78632
C         19.71842        25.65093        -0.37888
C         20.74694        27.87484        -0.73556
C         19.67493        27.03768        -0.22482
C         20.79613        29.20920        -0.54599
C         19.92763        29.87888         0.48629
C         20.96667        32.11296         0.16801
C         19.78490        31.37345         0.24616
C         20.96370        33.49673        -0.01475
C         19.74665        34.19340        -0.17658
C         20.87070        36.42834        -0.30577
C         19.72120        35.64447        -0.44443
C         20.81355        37.85446        -0.38411
C         19.67360        38.50446        -0.74595
O          3.17051        34.06529        -1.31970
O          4.25452        20.80627        -0.69524
O         15.37935        20.72520        -1.69347
O          8.00395        27.53351         1.47181
O         15.21319        29.74055         2.05140
O          9.84015         8.83036         2.12963
O         16.55462        33.40274        -1.50163
O         14.20668        36.27392         1.11022
O          6.21907        37.57124         1.07635
O         16.32393         5.75870        -1.29891
O          6.31606        22.85914        -1.23170
O         10.42053        33.82559        -1.63971
O         15.40294        23.37736        -1.60895
O          4.33817        23.28240         1.94037
O          9.13661        29.36788        -1.61847
O         11.77482        16.78973         2.12320
O          3.83799        15.68548        -0.45030
O          4.61423        17.82753         2.59144
O         18.10167        29.52681         2.01309
O          3.91749         5.61398         0.59166
O         16.74505        24.91066         1.55098
O         18.68678        20.02613         1.39320
O          9.17512        23.05957        -1.57829
O          6.64345        12.17444         2.41618
O         16.52193        16.79448         1.82795
O         18.68343        37.62369        -2.71404
H         19.53276        37.15067        -2.85108
O          8.35123        18.77734        -1.30000
H          7.60072        19.31644        -1.63179
O          4.31620         9.50568         1.97108
H          4.90876         8.80637         2.35060
O          2.04561        13.88315         2.19177
H          1.31026        13.24057         2.27818
O         16.00129        27.33589         2.44452
H         15.54054        28.07688         2.90128
O         17.56693         4.15769         1.73625
H         17.59997         3.24390         2.08698
O         14.86386        16.62385        -1.44750
H         14.19211        17.15654        -1.92387
O         18.01405        24.80129        -1.73761
H         18.71153        24.33664        -2.24691
O         18.85837        23.43693         1.56822
H         18.88640        22.51058         1.88964
O          6.25704        21.02213         2.39553
H          6.95007        20.47033         2.81502
O          7.91625        35.52074         2.02192
H          7.86319        36.43881         2.36790
O         20.66199        29.73325         1.73712
H         19.99362        29.80554         2.45747
O         16.99110         8.46906        -1.81984
H         16.79675         7.53591        -2.08397
O         15.94741        32.45822         2.02345
H         15.80306        31.60681         2.50421
O          4.78663        26.98282        -1.80318
H          4.75149        27.90142        -2.14649
O          1.12528        36.78655         1.95407
H          1.93571        37.28417         2.19467
O          6.47067        16.17928         2.96450
H          5.98244        16.92124         3.39670
O          4.68861        34.00922         1.98390
H          5.51126        34.30370         2.43167
O         13.58018         2.14916        -0.55915
H         13.69077         2.50001        -1.46643
O          0.61293        19.04379         2.48357
H          0.63481        18.08909         2.70751
O          5.76309         7.20061         1.91662
H          5.00123         6.56815         1.88431
O          3.32287         8.87612        -2.62170
H          2.66348         9.41021        -3.11439
O         15.07866         5.58182         2.15530
H         14.27982         5.26896         2.62796
O         20.21359        14.28656         2.04229
H         20.15479        15.23815         2.27369
O          8.82334         6.85068        -1.81361
H          8.93790         6.04943        -2.36836
H          1.56735         2.62597        -2.66379
H         -0.43457         3.98813        -3.25728
H         -0.49550         6.40805        -2.78243
H         -0.63919         8.17346        -1.96963
H         -0.67335        10.56517        -1.55782
H         -0.75471        12.42052        -1.12119
H         -0.82821        14.78376        -0.64251
H         -0.86002        16.64215        -0.42310
H         -0.96264        19.03053        -0.04256
H         -1.11471        20.88135         0.95768
H         -1.12589        23.30900         0.66185
H         -1.07894        25.21744         0.67759
H         -1.08920        27.63194         0.49450
H         -1.09019        29.54983         0.19911
H         -1.06087        31.96045         0.07751
H         -1.04671        33.89077        -0.08344
H         -1.00213        36.29370         0.16999
H          0.24957        38.38021        -0.36782
H          3.88848         2.51668        -1.97367
H          2.37688        39.49582        -0.87239
H          6.33453         2.44562        -1.48924
H          4.59205        39.62504        -0.97852
H          8.74825         2.45461        -1.03333
H          7.34012        39.18421        -1.65655
H         11.11869         2.37955        -0.39790
H          9.74207        39.45169        -1.12289
H         13.42985         2.81392         1.37657
H         12.23242        39.50970        -1.16164
H         15.97740         2.31259        -0.13611
H         14.74999        39.51685        -1.11550
H         18.50543         2.30665        -0.45516
H         17.14923        39.50823        -1.28729
H         20.57572         3.59637        -0.84069
H         21.87610         5.71748        -0.41349
H         21.89364         8.16398        -0.18344
H         21.88073        10.03480         0.03097
H         21.89093        12.45042         0.38499
H         21.76264        14.24292        -0.50194
H         21.68421        16.62174        -0.96789
H         21.81481        18.56182        -0.78961
H         21.84439        20.95545        -1.04166
H         21.79789        23.03093        -1.21147
H         21.80468        25.44303        -1.00946
H         21.48745        27.40471        -1.39967
H         21.58798        29.80234        -1.02684
H         21.92769        31.58968         0.27016
H         21.92412        34.02534        -0.07194
H         21.82742        35.96825        -0.02647
H         21.71282        38.42654        -0.11268
H         19.64509        39.60190        -0.80824
