         260
 CSIRO Nanostructure Databank - Neutral Graphene Oxide Data Set
C         30.52019        31.68321        -1.71168
C         30.59618        32.91384        -1.56687
C         30.79733        36.05092        -2.05759
C         30.94303        37.27299        -2.25771
C         30.79879        40.29638        -1.26045
C         30.77481        41.51824        -1.02246
C         32.82935        28.77807        -0.97207
C         31.84146        29.38110        -1.40649
C         32.79839        31.57211        -0.73706
C         31.50762        30.78366        -1.11185
C         32.84328        33.06210        -0.82813
C         31.65221        33.81223        -1.19737
C         32.76666        35.99657        -0.74144
C         31.66376        35.19458        -1.32258
C         32.91234        37.45217        -1.03142
C         31.98235        38.14055        -1.79103
C         33.21774        40.37780        -1.44191
C         31.95628        39.62474        -2.00761
C         33.15321        41.92770        -1.41743
C         31.78156        42.50130        -0.88589
C         32.98328        44.47092        -0.35891
C         31.88246        43.81966        -0.56429
C         35.35646        27.29167         0.54625
C         35.10772        28.73890         0.43616
C         33.99456        29.38069        -0.29685
C         35.35456        31.55442        -0.27180
C         34.14303        30.81229        -0.82127
C         35.36087        32.98931        -0.70928
C         34.05687        33.72175        -0.63899
C         35.33420        35.94911        -0.49040
C         34.06270        35.15930        -0.38730
C         35.29494        37.37455        -0.02321
C         34.06021        38.16329        -0.40063
C         35.32596        40.31226         0.09680
C         34.26781        39.62365        -0.67168
C         35.47680        41.76922        -0.06024
C         34.37838        42.57249        -0.72395
C         35.41146        44.63208         0.33058
C         34.26049        43.99673        -0.23900
C         35.57617        46.05525         0.44713
C         37.73797        27.31446         1.18491
C         36.42882        26.81509         0.93655
C         37.66520        28.83294         1.25615
C         36.39401        29.52253         0.76260
C         37.81668        31.55708         0.11498
C         36.46494        30.92403         0.22642
C         37.91518        33.00900        -0.39761
C         36.65644        33.75271        -0.77183
C         37.96524        36.02365        -0.57644
C         36.65080        35.27262        -0.74516
C         37.93386        37.59362        -0.42060
C         36.59819        38.08787         0.23587
C         37.85683        40.35336         0.40827
C         36.53981        39.56706         0.47891
C         37.67507        41.65828         1.20360
C         36.34060        42.43062         1.02003
C         37.62976        44.67439         1.54814
C         36.50365        43.94833         0.84983
C         37.70469        46.24327         1.46710
C         36.49203        46.78464         0.83618
C         40.15101        24.53599         0.70219
C         39.10272        25.20242         0.88903
C         40.24047        27.25247         1.24103
C         38.89702        26.58670         1.14480
C         40.26021        28.78532         1.28305
C         38.99064        29.64242         1.45235
C         40.24163        31.62929         0.50863
C         39.04247        30.95252         0.67200
C         40.29160        33.04012         0.18258
C         39.13814        33.75427        -0.06384
C         40.41716        35.92759         0.25453
C         39.20010        35.23341        -0.24284
C         40.40194        37.41080         0.39296
C         39.10925        38.16763         0.40089
C         40.19349        40.09392         1.55748
C         39.04828        39.46688         0.82242
C         40.19281        41.59533         1.75782
C         38.89064        42.36654         1.70378
C         40.22192        44.62915         1.84301
C         38.88504        43.89134         1.91482
C         40.30314        46.13764         1.43157
C         39.02064        46.95689         1.41639
C         40.10411        49.02365         0.23481
C         39.33725        48.24231         0.79529
C         42.76405        24.53553         0.53987
C         41.46113        25.08020         0.60088
C         42.56355        27.32970         0.46509
C         41.44040        26.53457         0.71184
C         42.67365        28.72061         0.76273
C         41.50614        29.45507         0.90452
C         42.79959        31.56762         0.76994
C         41.52445        30.85210         0.38411
C         42.81080        33.05250         0.62245
C         41.61702        33.74477        -0.00673
C         42.85573        35.83661         0.63522
C         41.59186        35.20766         0.35621
C         42.81597        37.16131         1.35731
C         41.64745        38.05693         0.92698
C         42.85021        40.14470         1.78314
C         41.53090        39.38321         1.64999
C         42.82761        41.63240         1.57012
C         41.48911        42.33979         1.69414
C         42.47082        44.37863         0.53537
C         41.45970        43.83561         1.50772
C         42.38183        45.78140         0.11574
C         40.96522        46.21823         0.05920
C         42.30564        48.78881        -0.67726
C         41.19945        49.63672        -0.43460
C         43.95509        24.90125         0.72221
C         45.46987        27.00802         1.03121
C         44.52715        26.18488         0.46242
C         45.31793        28.54147         1.05526
C         44.02965        29.34893         0.90984
C         45.27931        31.54306         0.66376
C         44.09484        30.83566         0.72874
C         45.30355        32.99348         0.47999
C         44.11518        33.72951         0.46300
C         45.33879        35.90427         0.12147
C         44.07595        35.16561         0.49143
C         45.35541        37.43769         0.48006
C         44.15488        37.91720         1.30966
C         45.39763        40.22172         1.24104
C         44.14021        39.39695         1.51969
C         45.21944        41.53780         0.53568
C         43.91680        42.24094         0.72079
C         44.91921        44.47028        -0.13999
C         43.74362        43.64600         0.21728
C         44.74718        45.82116        -0.48393
C         43.44437        46.46561        -0.44935
C         43.08204        47.82607        -0.71720
C         47.89683        27.29078         1.23319
C         46.80886        26.70411         1.38829
C         47.86855        28.58467         0.39217
C         46.62670        29.32853         0.92457
C         47.79620        31.51362         0.24074
C         46.58706        30.82447         0.77551
C         47.75880        32.96030         0.20024
C         46.58575        33.68243         0.34434
C         47.81530        35.82211         0.34443
C         46.62405        35.14790         0.38136
C         47.93223        37.27911         0.65918
C         46.68150        38.00342         1.03973
C         47.91186        40.27148         0.58966
C         46.70638        39.51830         1.10427
C         47.78434        41.80955         0.53310
C         46.42834        42.30145        -0.05840
C         47.54498        44.67803        -0.15033
C         46.26183        43.84305         0.07996
C         47.15103        45.96571        -0.73055
C         46.01552        46.46848        -0.69101
C         50.21286        28.76220        -0.49474
C         49.16064        29.40094         0.44844
C         49.97274        31.54143        -0.92735
C         48.95545        30.83375        -0.07788
C         49.99046        33.05145        -0.90586
C         49.13447        33.59840         0.25745
C         50.32020        35.89221        -0.11081
C         49.10821        35.11239         0.32893
C         50.09711        37.31614        -0.52872
C         49.07111        38.01697         0.03269
C         50.01179        40.23773        -0.90861
C         49.06455        39.51801        -0.00280
C         49.95172        41.65872        -1.04465
C         48.98386        42.46857        -0.21994
C         49.65447        44.40179        -1.60601
C         48.83158        43.98608        -0.46763
C         51.10468        29.45301        -1.05519
C         52.17323        31.69861        -1.89029
C         51.19953        30.79666        -1.41204
C         52.18779        32.94504        -1.89265
C         51.13245        33.95666        -1.52613
C         52.44995        36.07395        -1.18774
C         51.58708        35.04232        -0.53859
C         52.24627        37.21786        -1.57986
C         50.92925        37.94827        -1.64685
C         51.75262        40.23764        -2.44491
C         50.96188        39.44719        -1.60641
C         51.76044        41.49043        -2.60722
C         50.83734        42.33298        -1.96943
C         50.61388        43.74358        -2.04596
O         38.87667        35.61749        -1.64000
O         35.61543        42.30907        -1.43303
O         49.60951        43.48542         0.62662
O         41.40620        38.09806        -0.49164
O         44.57882        28.95627         2.23423
O         40.37808        46.48091        -0.97411
O         41.27547        44.43918         2.82568
O         36.67596        29.36094         2.18622
O         50.05163        35.67878         1.30731
O         47.49481        37.42382         2.07847
O         46.29975        40.14470         2.36665
O         37.99599        41.62710         2.61138
O         44.17149        41.38013        -0.46616
O         34.38678        39.90690        -2.14920
O         37.92015        44.26997         2.92338
O         34.30743        37.73634         0.96814
O         43.60438        26.89571        -0.36003
O         49.28021        32.37346        -1.96564
O         31.82813        31.09564         0.25183
O         42.60164        32.43883         1.93192
O         43.14323        41.07049         2.87226
O         33.11835        35.59425         0.60731
O         40.61509        39.36925         2.76468
O         35.87912        35.83962        -1.84477
O         47.01378        44.47876         1.15761
O         40.45367        27.94909         2.49578
O         38.23448        46.89132         2.62807
O         38.04599        38.18285        -1.66760
O         38.12345        31.88888        -1.30568
O         33.96884        29.28270         1.14038
O         46.86603        30.17292         2.06952
O         44.46386        38.45808         2.61084
O         42.60032        43.59554        -0.71233
O         49.10800        39.98996         1.39774
O         36.05833        33.20794        -1.99239
O         45.16148        35.76150        -1.28113
O         41.88620        33.59847        -1.50037
O         41.65744        30.68506        -1.13076
O         40.88127        41.98822         2.96641
O         36.61254        38.58664         1.59147
O         33.21079        42.32561        -2.80387
H         34.13011        42.14588        -3.10910
O         42.55631        36.80092         2.73358
H         43.10924        37.38887         3.30509
O         52.14759        34.40782         0.58129
H         52.37549        35.08348         1.25324
O         41.67997        34.85889        -2.15607
H         40.72123        34.85670        -2.40748
O         40.46579        30.01336        -1.59587
H         39.89902        30.75859        -1.93042
O         34.45517        30.68560        -2.23153
H         34.91150        31.49819        -2.54641
O         47.60033        28.23309        -0.94717
H         48.43941        27.92594        -1.36208
O         38.09556        40.74409        -0.94897
H         38.13436        39.88565        -1.48462
O         50.59066        34.58703        -2.65560
H         50.10832        33.91377        -3.18531
O         31.84881        39.90503        -3.37423
H         32.04292        40.86136        -3.51839
O         47.80592        42.24211         1.88680
H         48.51273        41.74601         2.35532
O         35.57544        42.24878         2.22599
H         36.21232        42.26633         2.98117
O         45.24300        38.15437        -0.76906
H         45.09119        37.43432        -1.45824
O         49.77031        33.09736         1.45859
H         50.13623        33.87569         1.94298
O         38.99952        30.07855         2.82365
H         39.24017        29.30889         3.38687
O         50.28481        37.57298        -2.87016
H         50.80766        37.92427        -3.62110
O         49.64172        29.44081         1.76016
H         50.28773        30.16840         1.86544
O         41.17009        50.92193        -0.77646
H         41.99692        51.19510        -1.22129
O         41.22532        46.80034         2.31112
H         40.96631        46.60662         3.23820
O         46.47732        42.01079        -1.46395
H         45.55890        41.80127        -1.76127
