         657
 CSIRO Nanostructure Databank - Neutral Graphene Oxide Data Set
C          5.77845        31.87957         1.75474
C          5.77218        33.18974         2.12868
C          8.00505        27.77718         0.32858
C          8.14947        29.08697         0.76509
C          6.96024        29.88273         0.92122
C          8.23767        31.94870         1.31604
C          6.98740        31.19681         1.35999
C          8.20188        33.38963         1.60180
C          6.95969        34.01678         2.05131
C          8.04769        36.25776         2.15847
C          6.91194        35.35411         2.38771
C          8.10631        37.63699         2.65571
C         10.76118        23.68091        -0.69046
C         10.66306        25.00817        -0.34512
C          9.36541        25.70451        -0.35198
C         10.90898        27.75663         1.11288
C          9.03721        26.76824         0.44938
C         10.75812        29.08568         0.94603
C          9.43171        29.76675         1.28801
C         10.63725        32.05650         0.73407
C          9.40150        31.27781         0.99225
C         10.56473        33.59450         0.87054
C          9.36677        34.11908         1.61132
C         10.63628        36.28208         2.07704
C          9.35774        35.59008         1.76623
C         10.59041        37.67880         2.50678
C          9.30308        38.38224         2.64574
C         10.47152        40.60487         2.95873
C          9.28212        39.79495         2.70892
C         10.59832        42.02697         2.63290
C         13.34315        19.57252        -1.65809
C         13.33156        20.96036        -1.49740
C         12.08611        21.64077        -1.19652
C         13.20588        23.82241        -1.28374
C         12.00663        22.99609        -0.99096
C         13.21137        25.22203        -0.74612
C         11.93577        25.81039        -0.21618
C         13.32017        27.74546         0.60179
C         12.11735        26.89526         0.87483
C         13.27493        29.12714         0.80713
C         11.97866        29.81616         0.41563
C         13.15484        32.00134         1.27852
C         11.95766        31.33652         0.63892
C         13.19621        33.50814         1.32649
C         11.88348        34.25325         1.28199
C         13.12562        36.27181         2.08209
C         11.82126        35.59753         1.90618
C         13.06696        37.71843         2.46309
C         11.76950        38.36859         2.71570
C         13.06563        40.54020         2.82770
C         11.81079        39.79751         3.08016
C         13.06007        41.91157         2.65287
C         11.83401        42.69597         2.59052
C         13.17376        44.83548         2.32664
C         11.94207        44.10498         2.34035
C         13.20923        46.16672         1.80410
C         15.78841        15.33413        -2.20358
C         15.76506        16.76347        -2.27024
C         14.56448        17.45929        -2.05447
C         15.79755        19.57286        -1.85172
C         14.55224        18.86306        -1.88662
C         15.78809        20.99331        -1.68520
C         14.57146        21.68218        -1.58076
C         15.83616        23.97284        -1.63116
C         14.52353        23.16375        -1.62398
C         15.81989        25.17425        -0.69905
C         14.52235        25.68417        -0.11191
C         15.81472        27.74734         0.56888
C         14.55040        27.20903        -0.04882
C         15.72019        29.05338         1.22684
C         14.46645        29.80558         1.10423
C         15.69868        31.95951         1.62649
C         14.40454        31.20978         1.53860
C         15.67044        33.42270         1.91889
C         14.37390        34.14449         2.00012
C         15.57171        36.12920         2.88609
C         14.36265        35.46692         2.30664
C         15.51470        37.60416         3.16861
C         14.29300        38.40318         2.91035
C         15.59118        40.41908         2.56528
C         14.29617        39.77266         2.87302
C         15.62321        41.89163         2.36072
C         14.32388        42.63263         2.38441
C         15.64305        44.65311         2.83886
C         14.37360        44.08290         2.61656
C         15.66022        46.60231         1.97080
C         14.38145        46.89822         1.39817
C         15.64077        48.29839        -0.18821
C         14.40780        47.82712         0.33086
C         15.67824        49.29190        -1.21351
C         18.27183        11.14447        -1.57954
C         18.25497        12.54296        -1.76179
C         17.02798        13.23134        -1.88159
C         18.24494        15.28848        -2.54446
C         16.98145        14.61241        -2.16244
C         18.23608        16.78838        -2.74114
C         16.99749        17.50427        -2.36322
C         18.32619        19.53479        -1.70130
C         17.01887        18.86277        -2.05616
C         18.26097        21.03203        -1.79589
C         17.06662        21.70932        -1.69248
C         18.27057        23.77829        -1.12405
C         17.08400        23.13894        -1.45350
C         18.27944        25.03804        -0.29436
C         16.97571        25.79443        -0.31861
C         18.28354        27.78231         0.58419
C         16.99804        27.09599         0.36159
C         18.29458        29.15350         1.06277
C         17.04899        29.76422         1.53236
C         18.22053        32.07257         1.49222
C         17.02258        31.23450         1.95356
C         18.20867        33.46307         2.03806
C         16.90100        33.99624         2.63406
C         18.11866        36.12483         3.08579
C         16.92192        35.50538         2.75892
C         18.13428        37.56433         3.48205
C         16.82863        38.31312         3.36056
C         18.18080        40.36129         2.47563
C         16.86984        39.67638         2.74798
C         18.20753        41.84106         2.65929
C         16.89240        42.59192         2.71558
C         18.18021        44.85580         2.65235
C         16.88869        44.04391         2.68287
C         18.10069        45.87361         1.46017
C         16.87906        46.79146         1.31981
C         18.13590        48.13590        -0.33566
C         16.88393        47.72000         0.24892
C         18.12703        49.11189        -1.37082
C         16.87311        49.71013        -1.79647
C         18.05401        51.21285        -3.36117
C         16.88366        50.77737        -2.76066
C         18.10492        52.26837        -4.32317
C         20.69076         6.84510        -1.74984
C         20.70197         8.24972        -1.65768
C         19.48883         9.00960        -1.53640
C         20.74751        11.13731        -1.27423
C         19.47226        10.40231        -1.47063
C         20.75549        12.66792        -1.26967
C         19.50257        13.29041        -1.84125
C         20.76279        15.37694        -2.25839
C         19.52186        14.60881        -2.23342
C         20.77864        16.75183        -2.45935
C         19.55635        17.54834        -2.90026
C         20.77104        19.63148        -2.29508
C         19.56113        18.94268        -2.32562
C         20.80580        21.03295        -1.88104
C         19.52757        21.81893        -1.99786
C         20.72983        23.76415        -0.90999
C         19.53372        23.12435        -1.24776
C         20.77197        25.13941        -0.53006
C         19.48166        25.93329        -0.66021
C         20.76337        27.96150         0.14714
C         19.46023        27.21507         0.12866
C         20.74328        29.25497         0.89869
C         19.51029        29.88212         1.12289
C         20.67653        31.94751         2.05911
C         19.55064        31.39313         1.19798
C         20.71357        33.40092         2.35376
C         19.47415        34.12782         2.43961
C         20.68401        36.06555         3.28147
C         19.40168        35.41860         2.94945
C         20.72384        37.59475         3.40854
C         19.44697        38.40110         3.50952
C         20.73184        40.36853         2.49988
C         19.45614        39.62011         2.61679
C         20.62829        41.78602         1.91954
C         19.43530        42.58080         2.42431
C         20.66472        44.64899         2.16591
C         19.43766        43.98110         2.41988
C         20.68837        46.05148         1.70703
C         19.37623        46.68528         1.29094
C         20.60418        48.11383        -0.37105
C         19.37982        47.65552         0.16713
C         20.59000        49.05881        -1.44480
C         19.34890        49.51713        -1.94960
C         20.58843        50.99385        -3.60904
C         19.30183        50.46228        -3.08056
C         20.60437        52.39841        -4.15381
C         19.30477        52.78960        -4.82052
C         20.56258        54.31883        -6.30393
C         19.34914        53.79705        -5.80862
C         20.57612        55.30807        -7.31234
C         23.10360         3.98365        -1.91585
C         21.89994         4.68607        -1.86266
C         23.12933         6.80424        -2.08583
C         21.89078         6.10881        -1.90496
C         23.12565         8.22036        -2.07633
C         21.95103         8.93079        -1.79347
C         23.25867        11.11930        -1.85687
C         22.02204        10.37904        -1.52297
C         23.23840        12.54667        -1.92894
C         22.02286        13.27969        -1.84173
C         23.25142        15.35268        -2.33263
C         22.01476        14.65764        -2.11864
C         23.25926        16.78199        -2.41817
C         22.02360        17.48255        -2.43334
C         23.27023        19.63512        -2.42877
C         22.00289        18.90368        -2.44295
C         23.25904        21.10522        -1.94665
C         21.96993        21.68027        -1.56063
C         23.26315        23.73327        -0.74140
C         21.97294        22.93375        -0.71180
C         23.24119        25.06908        -0.25957
C         21.97205        25.72950        -0.11980
C         23.22767        27.76116         0.85177
C         21.94098        27.07371         0.49599
C         23.20146        29.21509         1.11529
C         21.99636        29.88168         1.22880
C         23.21754        31.99430         1.96971
C         21.98391        31.20982         1.90724
C         23.20909        33.31219         2.39526
C         21.94834        34.01521         2.62601
C         23.16335        36.12996         3.12954
C         21.96301        35.40889         2.96955
C         23.16624        37.55598         3.10832
C         21.95905        38.27287         3.02328
C         23.16140        40.27619         2.03935
C         21.90899        39.65698         2.56207
C         23.15872        41.77603         1.89787
C         21.91523        42.54294         2.11965
C         23.18831        44.70979         2.30271
C         21.90561        43.91706         2.15851
C         23.16053        45.95717         1.41538
C         21.93155        46.53750         1.06110
C         23.09133        48.11573        -0.40144
C         21.87527        47.59685         0.11410
C         23.08406        49.08948        -1.47839
C         21.84399        49.55114        -1.99309
C         23.05945        50.95504        -3.61522
C         21.85801        50.51183        -3.03016
C         23.04408        51.97252        -4.66995
C         21.84506        52.66021        -4.96847
C         23.05772        54.18932        -6.41834
C         21.83559        53.72710        -5.88357
C         23.07378        55.52247        -7.11572
C         21.77391        55.83903        -7.82358
C         23.01514        57.23236        -9.41386
C         21.79526        56.76773        -8.87143
C         24.32373         4.65094        -2.01205
C         25.60850         6.74530        -2.14766
C         24.37663         6.07152        -2.11883
C         25.69153         8.17010        -2.43455
C         24.36062         8.95906        -2.39392
C         25.67488        11.08826        -2.31077
C         24.42266        10.41172        -2.16392
C         25.69344        12.49082        -2.32717
C         24.46240        13.22994        -2.23603
C         25.72777        15.34678        -2.76074
C         24.46110        14.62945        -2.38179
C         25.74761        16.78562        -2.32746
C         24.52115        17.49239        -2.34629
C         25.73048        19.60418        -1.97955
C         24.52915        18.90536        -2.25263
C         25.70845        21.04232        -1.73473
C         24.52838        21.73029        -1.52839
C         25.70087        23.84130        -0.88613
C         24.48811        23.10512        -1.04267
C         25.71625        25.14023        -0.33127
C         24.47655        25.78249         0.00206
C         25.73055        27.80809         0.76676
C         24.50207        27.09523         0.53971
C         25.74634        29.18692         1.18238
C         24.46064        29.84561         1.66000
C         25.73651        32.01095         1.86729
C         24.46049        31.35528         1.40422
C         25.68607        33.36434         2.37192
C         24.46648        34.00771         2.59497
C         25.71389        36.08882         3.34590
C         24.41347        35.29730         3.39821
C         25.73016        37.59275         3.20380
C         24.43635        38.40405         3.16568
C         25.71929        40.27541         2.05282
C         24.45031        39.44093         2.03196
C         25.67169        41.71433         1.52794
C         24.43509        42.51212         1.92632
C         25.70428        44.62422         1.96556
C         24.43487        43.86576         2.02761
C         25.66089        46.07968         1.50203
C         24.36013        46.60143         1.02373
C         25.53890        48.55335        -0.16655
C         24.32552        47.69125         0.14472
C         25.59051        48.81791        -1.68718
C         24.29456        49.49031        -2.09909
C         25.52050        50.63829        -3.94316
C         24.28138        50.39686        -3.16591
C         25.47570        51.54598        -5.14279
C         24.23354        52.33273        -5.35067
C         25.52038        53.98182        -6.71908
C         24.25177        53.49183        -6.16201
C         25.48093        55.10448        -7.62958
C         24.30754        55.74816        -7.95661
C         24.23565        56.72860        -8.99393
C         26.91852         8.94627        -2.23470
C         28.15453        11.06740        -2.21900
C         26.92141        10.33094        -2.28800
C         28.18319        12.45202        -2.25016
C         26.95122        13.20533        -2.35389
C         28.20016        15.31893        -2.20120
C         26.97480        14.59419        -2.40186
C         28.20794        16.69103        -1.92086
C         26.96596        17.44922        -2.02554
C         28.11398        19.51159        -1.24422
C         26.92362        18.85180        -1.80287
C         28.13967        21.01566        -1.14033
C         27.02221        21.78448        -1.83230
C         28.24478        23.90129        -0.88829
C         26.95528        23.24713        -1.36841
C         28.17102        25.11054        -0.07571
C         26.96312        25.79350         0.03198
C         28.20660        27.79433         0.88046
C         26.96253        27.13035         0.58434
C         28.21030        29.19744         1.18877
C         26.94695        29.89596         1.31605
C         28.18076        31.99057         2.00470
C         26.93189        31.31759         1.70659
C         28.17971        33.27336         2.50952
C         26.95084        34.02694         2.69147
C         28.24945        36.13024         3.36163
C         26.97294        35.35541         3.08338
C         28.19417        37.54985         2.79938
C         26.98985        38.24265         2.73796
C         28.20949        40.28263         2.06296
C         26.93763        39.62341         2.27044
C         28.19402        41.66199         1.44398
C         26.97016        42.41785         2.00864
C         28.12890        44.63555         1.63415
C         26.97409        43.91450         1.79437
C         28.11871        46.03103         1.23009
C         26.90835        46.67610         1.01524
C         28.14018        48.43762        -0.31765
C         26.86425        47.98493         0.34553
C         28.07994        49.29460        -1.51031
C         26.84118        49.56658        -2.13372
C         28.02211        50.97124        -3.78196
C         26.81413        50.35970        -3.28377
C         27.98241        51.85944        -4.86586
C         26.79231        52.00420        -5.78088
C         26.70287        53.35624        -6.43454
C         29.41969        13.19246        -2.26553
C         30.72242        15.30293        -2.47002
C         29.43412        14.56154        -2.23734
C         30.75367        16.73100        -1.94590
C         29.46817        17.26270        -1.26333
C         30.47268        19.51149        -0.71725
C         29.38167        18.77606        -1.12300
C         30.61273        20.92127        -0.88243
C         29.44971        21.70624        -1.03158
C         30.67355        23.73908        -0.39645
C         29.47510        23.09796        -0.85467
C         30.65470        24.94418         0.27102
C         29.36150        25.56522         0.72888
C         30.66759        27.71793         1.11532
C         29.43220        27.07424         0.85872
C         30.67121        29.13268         1.40071
C         29.45021        29.84573         1.43779
C         30.71332        31.92140         2.18470
C         29.47304        31.35771         1.52871
C         30.70705        33.17441         2.72906
C         29.42802        33.87033         3.12237
C         30.68021        36.05512         2.78704
C         29.48737        35.37058         2.94988
C         30.67336        37.50168         2.61304
C         29.44681        38.21051         2.53050
C         30.67209        40.37171         2.13947
C         29.42179        39.62409         2.21831
C         30.71334        41.74327         2.01583
C         29.48577        42.45701         1.61456
C         30.65288        44.74927         1.99323
C         29.44062        43.94182         1.64128
C         30.64818        46.10507         1.33876
C         29.37361        46.61991         0.78930
C         30.62325        48.22824        -0.60807
C         29.38762        47.70084        -0.06069
C         30.56756        49.25247        -1.53524
C         29.31103        49.74900        -2.06998
C         29.26367        50.62749        -3.16030
C         31.97905        17.32246        -2.05209
C         33.28060        19.51886        -1.76747
C         32.36135        18.57425        -1.42444
C         33.24882        20.86422        -1.17670
C         31.92872        21.56698        -1.05259
C         33.19844        23.67991        -0.31799
C         31.93913        23.06209        -0.74345
C         33.17724        24.91226         0.31356
C         31.90637        25.47735         0.91021
C         33.14282        27.61498         1.28485
C         31.91299        26.98760         1.05652
C         33.17469        29.03300         1.63075
C         31.93038        29.80011         1.69384
C         33.17682        31.82534         2.42949
C         31.94146        31.15140         2.08101
C         33.22249        33.15354         2.78411
C         31.96151        33.87842         3.18640
C         33.13390        36.07412         2.78640
C         31.95114        35.35501         2.80280
C         33.13179        37.50826         2.69163
C         31.92902        38.18844         2.54345
C         33.13534        40.42611         2.61200
C         31.97141        39.62141         2.08265
C         33.13429        41.88088         2.33379
C         31.94677        42.51835         2.13072
C         33.19990        44.68412         1.83388
C         31.93707        44.02350         2.38711
C         33.21048        46.15084         1.40529
C         31.90858        46.67869         0.83156
C         31.87208        47.65461        -0.12003
C         34.39554        21.60799        -1.06090
C         35.62888        23.61391        -0.30611
C         34.42848        22.97708        -0.58578
C         35.65488        24.93221         0.23724
C         34.40538        25.58730         0.58328
C         35.67596        27.48759         1.48403
C         34.37955        26.88040         1.13100
C         35.68263        28.92974         1.92988
C         34.38384        29.64710         1.90848
C         35.75215        31.75171         2.37347
C         34.42070        31.03629         2.38059
C         35.86137        33.23837         2.66787
C         34.49829        33.89020         2.97592
C         35.65135        36.13917         2.40989
C         34.45440        35.39421         2.92112
C         35.63117        37.53534         2.40644
C         34.44744        38.20699         3.04666
C         35.65525        40.45920         2.44217
C         34.42685        39.72606         2.87118
C         35.61777        41.83267         2.26654
C         34.40609        42.65520         2.62546
C         34.35977        44.00952         1.95124
C         36.87223        25.60210         0.39135
C         38.10589        27.64786         0.90041
C         36.92751        26.91519         0.92166
C         38.14794        29.05236         1.19793
C         36.91113        29.71194         1.64596
C         37.93195        31.80959         0.90889
C         36.87129        31.07372         1.69857
C         37.79506        33.31604         0.93341
C         36.66259        34.00109         1.63205
C         37.83892        36.18051         1.27098
C         36.73835        35.46266         1.81281
C         37.85005        37.57963         1.37252
C         36.75354        38.27963         1.93327
C         36.76972        39.70044         2.00549
C         39.30993        29.78408         1.06869
C         40.36128        32.04881         0.50305
C         39.31503        31.28437         1.28699
C         40.20207        33.36239         0.22612
C         38.99704        34.10505         0.58799
C         38.97276        35.46808         0.70841
O         31.90082        22.58627        -2.12698
O         15.01361        42.27790         1.09888
O         18.07828        33.21440         0.59862
O         13.28983        37.31506         1.04570
O         33.62606        40.26931         3.99345
O         25.84274        36.96960         4.54451
O         24.95276         8.56152        -3.66256
O         25.33377        50.08823        -5.31768
O         18.08930        15.87958        -3.89048
O         16.34010        28.99314         2.57128
O         30.47623        45.92739         2.81586
O         27.66464        49.04284         0.97051
O         11.10324        40.21004         4.25302
O         11.37709        31.90254        -0.56039
O         18.40245        24.57865         1.02411
O          9.83748        26.98823         1.60552
O         13.42224        31.45997         2.61967
O          8.54042        36.23277         0.74349
O         23.31631        20.75130        -3.36965
O         25.74322        45.73773         2.93056
O         27.70027        24.12256        -2.26419
O         15.79968        32.92176         0.54398
O         17.53266        42.10215         3.96215
O         21.53005        10.64231        -0.13398
O         12.46536        26.20745        -1.52861
O         29.74072        43.24474         0.36274
O         19.89058        49.96553        -4.36304
O         22.99377        40.87702         0.70849
O         20.03168        47.09414         2.51595
O         27.75456        20.25479         0.02929
O         12.81278        34.21765         0.12406
O         15.28070        36.62957         4.24280
O         34.57621        34.69051         4.21031
O         16.17884        39.65668         1.44842
O         20.79147        36.73626         4.58865
O         36.53239        33.65659         0.21302
O         22.38026        27.05515         1.88094
O         35.27605        31.09953         3.59423
O         31.60919        18.83332        -0.25776
O         21.17741        31.14018         3.15196
O         15.65480        46.00449         3.22583
O         35.78625        27.85192         2.91058
O         13.62115        23.66894        -2.68063
O         18.78233        39.67600         1.32336
O         17.36587        37.99507         4.66109
O         24.38296        39.17509         4.38595
H         24.64509        38.57733         5.12097
O         19.75742        17.74984        -4.33449
H         19.37333        16.95763        -4.78024
O         18.01174        45.00242         0.29896
H         17.91847        45.55315        -0.50718
O         16.74271        33.57018         4.00802
H         17.46941        33.94763         4.54629
O         27.09298        51.08532        -6.88764
H         26.66909        50.22682        -6.64480
O         23.16167        56.51911        -6.02915
H         23.18865        57.40267        -6.45464
O         24.39880        31.51931        -0.04901
H         24.40220        32.47898        -0.24832
O         11.98088        29.57618        -1.02322
H         11.57446        30.36871        -1.45163
O         36.68399        33.34028         3.84746
H         36.28539        32.75856         4.53157
O         19.53549        39.02735         4.81363
H         19.66162        38.30990         5.47370
O         14.58065        27.75827        -1.39982
H         13.67687        27.65067        -1.78342
O         20.43054        41.65165         0.47804
H         21.25185        41.23204         0.12197
O         37.74950        31.42806        -0.48256
H         37.03033        31.99466        -0.84133
O         25.29955        49.81895         0.47911
H         26.13698        50.07273         0.93736
O         18.50264        19.24687        -0.25343
H         17.84517        19.78547         0.23794
O         30.99325        15.30125        -3.88883
H         30.22048        15.68759        -4.34961
O         28.39626        36.27676         4.80902
H         27.52723        36.60570         5.14628
O         19.51065        22.22846        -3.41791
H         18.73394        22.81587        -3.54834
O         27.36018        21.77816        -3.24335
H         27.66529        22.68916        -3.47179
O         15.98655        24.52444        -2.97308
H         15.07506        24.66441        -3.32601
O         34.60055        37.95101         4.47065
H         34.03224        38.60348         4.94035
O         21.01701        28.33275        -1.27556
H         20.54751        29.17956        -1.44491
O         32.28408        39.53121         0.64044
H         31.50629        39.13736         0.19065
O         29.49862        16.69740         0.08181
H         30.21127        17.16606         0.56964
O         28.08265        41.40999         0.01787
H         28.56850        42.14413        -0.43483
O         24.45048        38.68979         0.79308
H         24.26544        39.34389         0.07982
O         39.52866        31.55080         2.69714
H         40.36154        31.11547         2.97229
O         14.49173        25.12314         1.22515
H         15.34561        25.32319         1.66657
O         34.48279        42.90116         4.06080
H         34.20240        42.06478         4.50301
O         24.27036        34.84413         4.77593
H         24.57527        35.57812         5.35454
O         10.28395        34.09644        -0.46329
H         11.11446        33.99968        -0.98369
O         18.33235        45.58123         3.87399
H         18.34745        44.94283         4.61610
O         20.72145        53.24862        -2.96351
H         20.81145        54.17684        -3.26736
O         24.43323        29.66388         3.10217
H         24.07474        28.77252         3.29829
O         17.18896        31.21118         3.38657
H         16.71244        30.41766         3.72783
O         19.33100        26.27669        -2.06206
H         19.99365        26.98395        -2.25152
O         25.64603        47.51266        -2.32696
H         25.55407        47.64522        -3.29453
O         27.05593        42.23811         3.44684
H         26.35673        42.77711         3.87389
O         31.89339        24.95492         2.29004
H         30.95677        25.00035         2.60544
O         31.96850        33.88762         4.65825
H         32.84879        34.25894         4.92394
O         25.55195        41.67380         0.08934
H         26.38807        41.28749        -0.27451
O         29.26455        33.62668         4.55304
H         30.11359        33.88416         4.98866
O          9.31909        29.69558         2.74545
H          9.33645        28.74187         2.98231
O         29.14098        25.06555         2.11830
H         28.36975        25.54950         2.48593
O         12.32295        26.19431         2.13286
H         11.43288        25.94073         2.46381
O         29.58662        31.80125         0.12175
H         28.84980        31.38686        -0.37661
O         31.99408        44.11312         3.83508
H         31.72785        45.02794         4.08038
O         25.71272        15.39517        -4.24460
H         26.45661        15.96832        -4.52749
O         19.93946        31.75243        -0.16666
H         19.40963        32.55070        -0.41388
O         21.88361        22.42557         0.67047
H         21.48574        23.12961         1.22759
O         34.29408        46.40398         0.51283
H         34.16984        45.85854        -0.29023
O         23.23495        45.12972         3.68842
H         24.07608        45.63407         3.80748
O         20.74758        13.07608         0.13418
H         21.25341        12.38488         0.62363
H          4.84460        31.29851         1.78171
H          4.83375        33.66386         2.45247
H          7.02542        27.48135        -0.08379
H          5.98647        29.38869         0.77651
H          5.98677        35.77208         2.81405
H          7.16304        38.14298         2.91206
H          9.83716        23.08753        -0.77834
H          8.66353        25.42022        -1.15248
H          8.32597        40.31088         2.53427
H          9.68420        42.57576         2.35955
H         12.39630        19.01379        -1.61663
H         11.18524        21.01919        -1.07649
H         11.01131        44.65872         2.14065
H         12.24711        46.55350         1.42725
H         14.83818        14.80689        -2.02969
H         13.62093        16.89889        -1.97885
H         13.46880        48.15158        -0.14123
H         14.73263        49.75215        -1.53694
H         17.31678        10.59867        -1.60905
H         16.08795        12.68190        -1.72390
H         15.93093        51.27602        -2.99572
H         17.15319        52.68469        -4.69003
H         19.73821         6.30400        -1.65017
H         18.53139         8.47046        -1.59761
H         18.40290        54.17581        -6.22582
H         19.61742        55.65271        -7.73093
H         23.09200         2.88591        -1.86060
H         20.94910         4.14533        -1.75353
H         22.98583        57.96057       -10.23662
H         20.84645        57.10494        -9.31442
H         25.26306         4.08007        -2.02665
H         26.53613         6.18634        -1.95276
H         26.41142        55.37249        -8.15466
H         25.16007        57.02615        -9.51073
H         27.86295         8.40560        -2.07124
H         29.09879        10.50526        -2.16316
H         28.93259        52.28378        -5.22539
H         27.63488        53.74962        -6.86940
H         30.36729        12.63615        -2.32655
H         31.56529        14.73417        -1.99797
H         31.50179        49.66031        -1.94968
H         30.19819        51.01853        -3.58880
H         32.75074        16.78112        -2.62612
H         34.00654        19.32443        -2.57132
H         33.41970        46.75080         2.33612
H         32.81987        48.05141        -0.51546
H         35.36397        21.12707        -1.26664
H         36.58261        23.10094        -0.49912
H         36.52746        42.34648         1.91858
H         35.30484        44.48236         1.63900
H         37.80015        25.12771         0.03852
H         39.02234        27.16618         0.52677
H         38.71242        38.14735         0.99336
H         37.65451        40.23613         1.63106
H         40.25463        29.26954         0.83106
H         41.30213        31.54244         0.23539
H         41.01748        33.92557        -0.25467
H         39.86758        36.05417         0.44832
