         295
 CSIRO Nanostructure Databank - Neutral Graphene Oxide Data Set
C        -11.24979         0.64709        -0.50088
C        -10.16304         1.44880        -1.09368
C         -8.95469         0.72174        -1.74560
C         -7.69929         1.53247        -2.12368
C         -6.35877         0.71308        -2.07940
C         -5.13280         1.16067        -1.21590
C         -3.72322         0.51618        -1.55205
C         -2.60198         1.42571        -2.12139
C         -1.28418         0.70362        -2.22185
C         -0.00868         1.49554        -2.09940
C          1.25133         0.72008        -1.80932
C          2.34620         1.48313        -1.04993
C          3.69706         0.74783        -0.89448
C          4.99598         1.48112        -0.69172
C          6.27592         0.72174        -0.89327
C          7.53531         1.48395        -0.61841
C          8.87611         0.75936        -0.52580
C         10.05165         1.54364        -1.16832
C         11.32394         0.75562        -0.91773
C        -10.04916         2.82046        -0.72788
C         -8.83214         3.67776        -0.87004
C         -7.60031         2.91014        -1.43964
C         -6.28336         3.45948        -1.01803
C         -4.98161         2.68911        -0.86929
C         -3.87006         3.57446        -1.46650
C         -2.59075         2.97714        -2.06329
C         -1.29288         3.58753        -1.51205
C         -0.09199         2.94781        -1.71291
C          1.20439         3.69895        -1.69721
C          2.50227         2.90341        -1.58075
C          3.80490         3.63497        -1.39316
C          5.01711         3.02905        -0.69649
C          6.30302         3.58598        -1.37548
C          7.54179         2.97556        -0.71474
C          8.83502         3.71166        -0.75315
C         10.14453         2.96110        -0.58926
C         -8.54188         4.21811         0.54981
C         -7.35067         4.76065         0.86197
C         -6.30686         4.71634        -0.19047
C         -5.06204         5.52282        -0.12937
C         -3.83838         4.96474        -0.84652
C         -2.50796         5.53355        -0.51021
C         -1.33429         4.93122        -0.92469
C         -0.06412         5.77771        -0.86756
C          1.25318         5.06714        -1.13936
C          2.44564         5.69876        -0.87344
C          3.75695         5.14178        -1.30083
C          5.02010         6.01025        -1.14267
C          6.37926         5.19859        -1.49283
C          7.55179         5.80110        -0.69614
C          8.81152         5.06279        -0.75963
C         -6.97625         5.30356         2.23108
C         -5.92068         6.41001         2.15454
C         -4.99535         6.54505         0.97664
C         -3.68578         7.37402         1.03144
C         -2.46329         6.46440         0.70418
C         -1.18701         7.25642         0.81959
C         -0.04613         6.76160         0.29057
C          1.25000         7.19210         0.86528
C          2.50687         6.64529         0.28700
C          3.80486         7.24405         0.74937
C          5.08075         6.83016         0.11738
C          6.27070         7.78511         0.23271
C          7.52142         6.98239        -0.03304
C         -5.53277         7.05795         3.42839
C         -4.41146         7.80250         3.51898
C         -3.44802         7.95089         2.43697
C         -2.25106         8.53649         2.67181
C         -1.20660         8.58247         1.58199
C          0.14089         8.97956         2.12414
C          1.28235         8.35794         1.78482
C          2.60552         8.71332         2.44121
C          3.79144         8.59339         1.46955
C          5.11766         8.81146         2.16870
C          6.26969         8.43926         1.59662
C        -11.30591        -0.68759        -0.66402
C        -10.24836        -1.43720        -1.45135
C         -8.84915        -0.75080        -1.32620
C         -7.73213        -1.57655        -2.09464
C         -6.40885        -0.78568        -2.19369
C         -5.10890        -1.57175        -2.08490
C         -3.81088        -0.81209        -2.40917
C         -2.49056        -1.61742        -2.15522
C         -1.22867        -0.81147        -2.03490
C          0.00606        -1.44341        -1.47999
C          1.18635        -0.74846        -1.54063
C          2.49572        -1.43960        -1.58585
C          3.77195        -0.68209        -1.35575
C          5.00782        -1.47001        -0.91098
C          6.27943        -0.63216        -1.05228
C          7.56691        -1.35078        -1.27516
C          8.85820        -0.62547        -1.13726
C         10.12097        -1.45791        -0.90737
C         11.33780        -0.57247        -0.74722
C        -10.18146        -2.91115        -0.96942
C         -8.81866        -3.52893        -0.78987
C         -7.59466        -2.87048        -1.27275
C         -6.39449        -3.40996        -0.89923
C         -5.10801        -2.92217        -1.45251
C         -3.79734        -3.59972        -1.09878
C         -2.49336        -2.99513        -1.53129
C         -1.21000        -3.55118        -0.98335
C         -0.03392        -2.85723        -1.09051
C          1.27896        -3.51625        -0.77703
C          2.49323        -2.94042        -1.46477
C          3.80227        -3.67264        -1.44222
C          5.10856        -2.84381        -1.63682
C          6.35770        -3.59513        -1.12944
C          7.62900        -2.82433        -1.00099
C          8.67995        -3.30355        -0.04555
C          9.86025        -2.39787         0.29522
C         -8.80449        -4.74208        -0.18457
C         -7.54692        -5.54366        -0.01273
C         -6.34788        -4.59311        -0.00778
C         -5.05461        -5.14277         0.48262
C         -3.69832        -4.51490         0.11652
C         -2.57049        -5.54826        -0.10761
C         -1.21357        -5.06746        -0.71142
C          0.01393        -5.60686         0.06094
C          1.34793        -4.93356        -0.28945
C          2.65287        -5.66277        -0.47703
C          3.80939        -5.05103        -0.85224
C          5.16706        -5.77973        -0.90269
C          6.18091        -4.80891        -0.24193
C          7.52839        -5.52419         0.05088
C          8.60409        -4.54796         0.46293
C         -7.53052        -6.38497         1.24951
C         -6.36799        -6.93138         1.67356
C         -5.11291        -6.63668         0.85341
C         -3.84059        -6.98734         1.63739
C         -2.65857        -6.81565         0.68189
C         -1.45439        -7.71555         0.93408
C         -0.11584        -6.97173         0.68408
C          0.87933        -8.10719         0.86585
C          2.80089        -7.10205        -0.12489
C          3.32876        -7.44155         1.10384
C          5.34576        -7.21225        -0.27134
C          6.14151        -7.34201         1.01257
C          7.24850        -6.56255         1.10781
C         -6.25179        -7.80595         2.83559
C         -5.12028        -8.46712         3.15299
C         -3.90375        -8.40257         2.25778
C         -2.58315        -8.60051         2.97539
C         -1.42716        -8.25298         2.37652
C         -0.12592        -8.35965         3.17189
C          1.10749        -8.49496         2.29765
C          2.31178        -8.94401         2.69599
C          3.46690        -8.83919         1.69509
C          4.80950        -9.03327         2.35294
C          5.94134        -8.38515         2.02667
O         -1.59299        -8.84339         0.06352
H         -1.80666        -8.50691        -0.83617
O          6.68152         5.48434        -2.80974
O         -6.23159         0.07770        -3.36527
O         -3.81181         8.36890         0.07617
O          1.52957        -3.78697         0.63947
O          3.96624         4.47055        -2.57045
O          1.87812         5.98708         1.47179
O         -8.15630        -1.88232        -3.42975
H         -7.60713        -1.35293        -4.05272
O          3.44475        -6.45646         2.06774
H          3.22877        -5.57891         1.68240
O         -0.18506         6.64192        -2.04907
H         -1.05696         7.09208        -2.01900
O         -4.22408         4.73464        -2.23585
O          3.30565        -0.90739        -2.69514
O          4.91644         3.48472         0.65812
H          5.66387         3.09175         1.16701
O        -10.02665         1.09523        -2.57274
O         -3.28385        -3.66775         1.20705
H         -3.50841        -4.14190         2.04410
O         -6.15399         5.88745        -1.04188
O          1.96701         3.28167        -2.86982
O          5.21129        -8.18307        -1.00994
O          5.60627        -4.34236         0.99560
H          5.76269        -5.01530         1.69369
O         -3.15094        -4.06890        -2.31002
O         -7.46878        -6.41085        -1.16289
H         -6.65050        -6.98097        -1.05018
O          2.75638        -7.95248        -1.18270
H          3.13407        -8.82480        -0.91044
O          4.84699        -1.75380         0.49315
H          4.73386        -0.89039         0.95904
O          2.94594        -3.64956        -2.64207
O          0.93944        -8.97899        -0.01645
O         -1.58638        -1.52233        -3.28485
O          7.31700         2.32955         0.59520
O         -0.09008        -5.77458         1.51609
O         -3.02562        -6.78832        -0.72180
O         -3.18886         0.08672        -0.26293
H         -3.04404         0.88574         0.29237
O         -5.84474        -4.27902         1.34525
O          7.96244        -6.21195        -1.13852
H          7.98281        -5.54195        -1.86421
O         -6.79014         3.73826        -2.34444
O          8.29620        -0.81028        -2.45861
O          5.28836        -2.55715        -3.01345
H          5.32394        -3.40191        -3.50816
O          4.88929         6.99482        -2.18712
H          5.36613         6.59155        -2.96971
O          7.39081        -3.72509        -2.14269
O          4.23978         0.92635         0.45647
O          0.94389         1.12730        -3.15612
O        -10.69120        -1.46237        -2.81149
H         -9.90346        -1.61125        -3.39480
O         10.35828        -2.30874        -2.04733
H          9.66811        -2.09757        -2.72168
O         -2.59789         3.43533        -3.42889
H         -1.98201         2.86617        -3.94444
O         -3.69749        -6.02334         2.70320
H         -3.14031        -6.41304         3.41203
O         -5.22189        -2.76323        -2.90929
O          4.67307         6.21949         1.35921
O         -2.05846         1.02184        -3.40761
O          0.00650        -7.18204         3.98348
H          0.15078        -6.41239         3.38802
O         -6.18645         7.35099         1.05993
O         -5.17817        -7.39287        -0.31751
O         -3.89917        -0.52850        -3.79129
H         -3.02567        -0.72552        -4.20623
O          3.32915        -9.86102         0.68951
H          2.36502        -9.97059         0.48244
O         -8.12499         5.79567         2.91619
H         -8.41171         6.61807         2.46657
O         -5.57118         0.55291         0.04024
H         -4.86319        -0.06530         0.34916
O         -9.11084         4.79223        -1.72805
H         -8.24368         5.14861        -2.03535
O          6.10061         8.84315        -0.74506
H          5.82832         8.40024        -1.59268
O         -4.06147        -9.41236         1.25433
H         -3.26619        -9.40234         0.66727
O        -10.85767        -3.06354         0.34221
H        -11.83396        -3.02794         0.21718
O          9.17454         0.55443         0.87303
H          8.71207         1.26745         1.37393
O         -1.58679         9.59091         0.61171
H         -2.50406         9.35913         0.27446
O         -1.05803        -5.70277        -1.99461
H         -1.81940        -5.42367        -2.55896
O         11.20662         3.66721        -1.22161
H         11.09470         3.54017        -2.18840
O         -2.45091         5.50955         1.82486
H         -1.53722         5.16396         1.92270
O         -7.91996         1.81636        -3.51282
H         -7.27717         2.50838        -3.78776
O         -8.42519        -0.74307         0.04466
H         -9.14815        -1.14462         0.62045
O          1.79144         1.61131         0.28654
H          2.54893         1.73877         0.90776
O          3.62595         9.62293         0.46565
H          4.46020         9.64458        -0.07018
O          6.29230         3.06116        -2.70284
H          6.43317         3.85248        -3.29838
O        -10.58013        -1.86779         1.16764
O          2.57441        10.03727         2.96348
H          2.68826        10.64157         2.19751
O         -4.64184         2.73105         0.54729
H         -5.15353         1.99803         0.97707
O          5.48805        -5.92962        -2.29169
H          5.38712        -6.88969        -2.49978
O         11.01827        -3.17989         0.56170
H         11.30542        -3.56207        -0.29516
O          9.81693         1.70237        -2.57859
H          9.64015         0.82282        -2.97751
H         12.28885        -1.09406        -0.56010
H         12.26133         1.33027        -0.85441
H         10.38461         2.89248         0.50580
H          9.75889         5.62142        -0.70450
H          8.45276         7.33115         0.44431
H          7.23371         8.62382         2.09512
H          5.10981         9.31786         3.14588
H          2.77050         8.00762         3.29776
H          0.18086         9.83479         2.81691
H         -2.02876         8.97800         3.65659
H         -4.15414         8.28133         4.47666
H         -6.20074         6.93079         4.29235
H         -6.56847         4.45037         2.84119
H         -9.35970         4.23023         1.28708
H        -10.82465         3.20259        -0.04200
H        -12.05270         1.18450         0.02281
H        -12.24187        -1.21057        -0.41179
H        -10.79369        -3.53935        -1.66313
H         -9.75662        -5.20394         0.12267
H         -8.47285        -6.57409         1.78733
H         -7.14923        -7.91883         3.46422
H         -5.09298        -9.12942         4.03151
H         -2.56788        -9.02356         3.99358
H         -0.19550        -9.22900         3.87273
H          2.48540        -9.30713         3.72125
H          4.85574        -9.79657         3.14520
H          6.84625        -8.61918         2.61206
H          7.95202        -6.69382         1.94634
H          9.40983        -4.90312         1.12487
H          9.63148        -1.79268         1.20999
