         261
 CSIRO Nanostructure Databank - Neutral Graphene Oxide Data Set
C        -11.28220         0.78836        -0.09009
C        -10.08677         1.66492        -0.09038
C         -8.72807         0.91733        -0.18179
C         -7.55418         1.63546        -0.78680
C         -6.25345         0.88408        -0.88290
C         -5.03640         1.56185        -0.30685
C         -3.78862         0.77579         0.00157
C         -2.49227         1.48431         0.31837
C         -1.17840         0.75139         0.34037
C          0.10924         1.54915         0.35553
C          1.41820         0.81558         0.39204
C          2.60218         1.45901         1.06954
C          3.90675         0.68654         1.12305
C          5.27408         1.41042         1.06753
C          6.11027         0.74729        -0.10535
C          7.35925         1.49857        -0.53131
C          8.65075         0.74009        -0.53775
C          9.78251         1.41442         0.23586
C         11.07814         0.63866         0.23533
C        -10.13716         3.04135        -0.52955
C         -8.90524         3.86862        -0.56074
C         -7.59436         3.14630        -0.66407
C         -6.30105         3.85103        -0.35243
C         -5.01903         3.07167        -0.26807
C         -3.80085         3.68158         0.37364
C         -2.48723         2.97971         0.15200
C         -1.23119         3.71044         0.47422
C         -0.00614         2.95437         0.90613
C          1.24902         3.71825         1.21553
C          2.56850         2.94877         1.28966
C          3.81771         3.65357         0.83584
C          5.15139         2.95495         0.92964
C          6.33066         3.70054         0.41114
C          7.39488         3.01798        -0.40215
C          8.74462         3.66084        -0.15098
C          9.88588         2.89402        -0.02267
C         -8.97436         5.33763        -0.09917
C         -7.62730         6.05940        -0.01088
C         -6.40669         5.23190         0.24025
C         -5.12767         5.90842         0.64078
C         -3.81980         5.14076         0.69366
C         -2.52792         5.92674         0.68643
C         -1.24162         5.18692         0.75482
C          0.06793         5.81855         0.36449
C          1.23510         5.27108         1.21386
C          2.56154         5.94571         0.83151
C          3.76561         5.11062         0.47684
C          5.04151         5.85968         0.18064
C          6.22756         5.04734        -0.27325
C          7.52799         5.83645        -0.25267
C          8.73802         5.08783        -0.15335
C         -7.58678         7.40850         0.15562
C         -6.34479         8.17943         0.43462
C         -5.06410         7.41213         0.58475
C         -3.82930         8.03850        -0.00467
C         -2.53529         7.25484        -0.01095
C         -1.25307         7.90596        -0.46175
C          0.06807         7.17767        -0.26467
C          1.34863         7.97645        -0.37359
C          2.53929         7.33896         0.30107
C          3.68228         7.96975        -0.45182
C          5.00792         7.28836        -0.22994
C          6.22661         7.94771        -0.84760
C          7.49522         7.20511        -0.46290
C         -6.24297         9.63852         0.13339
C         -5.05997        10.28429         0.04890
C         -3.78446         9.55001        -0.17098
C         -2.46141        10.14343        -0.11192
C         -1.23696         9.44015        -0.67205
C          0.05478        10.09579        -0.20575
C          1.24996         9.45499        -0.09786
C          2.54416        10.12428         0.05151
C          3.72541         9.45310        -0.13890
C          5.04461        10.07236        -0.13158
C          6.19155         9.41164        -0.42922
C        -11.25091        -0.56219        -0.01107
C        -10.00961        -1.35230         0.16024
C         -8.71881        -0.58148         0.01566
C         -7.52848        -1.36138        -0.46276
C         -6.27967        -0.62897        -0.82035
C         -4.96297        -1.35565        -0.84651
C         -3.69544        -0.64657        -0.48670
C         -2.44074        -1.44793        -0.23513
C         -1.14337        -0.74390         0.04660
C          0.16795        -1.38453        -0.36122
C          1.46123        -0.65404        -0.04768
C          2.73621        -1.44547         0.18710
C          3.89006        -0.79713         0.91956
C          5.26705        -1.49769         0.83133
C          6.11967        -0.76472        -0.21552
C          7.30467        -1.46707        -0.94597
C          8.65847        -0.77263        -0.63908
C          9.91035        -1.50084        -0.24757
C         11.09556        -0.70308         0.17227
C         -9.96650        -2.83223        -0.01512
C         -8.79316        -3.52925        -0.00993
C         -7.44905        -2.81068         0.07082
C         -6.32384        -3.58481        -0.67163
C         -5.02890        -2.86160        -0.88061
C         -3.73811        -3.59444        -0.64087
C         -2.44523        -2.83523        -0.83635
C         -1.16222        -3.59313        -0.81736
C          0.16586        -2.88965        -0.58554
C          1.42872        -3.66687        -0.31015
C          2.70699        -2.94828         0.09812
C          3.78938        -3.70446         0.86390
C          5.15565        -3.02352         0.66162
C          6.30921        -3.72540         0.05405
C          7.39551        -3.05248        -0.75551
C          8.70087        -3.67575        -0.25891
C          9.83234        -2.94108         0.02944
C         -8.71990        -4.97185         0.20994
C         -7.55659        -5.68199         0.15795
C         -6.33683        -5.08360        -0.45086
C         -5.05057        -5.85106        -0.50004
C         -3.74251        -5.08630        -0.53972
C         -2.47979        -5.86749        -0.81041
C         -1.16051        -5.10618        -0.84163
C          0.09731        -5.86197        -0.53597
C          1.29393        -5.13181         0.02226
C          2.50746        -5.91104         0.41933
C          3.83662        -5.20356         0.51907
C          5.03515        -5.88377        -0.07150
C          6.23419        -5.10336        -0.55697
C          7.52374        -5.87663        -0.32633
C          8.69070        -5.09768        -0.12192
C         -7.48294        -7.07999         0.75758
C         -6.31579        -7.95036         0.24471
C         -4.97659        -7.16126         0.28868
C         -3.80562        -8.02915        -0.17401
C         -2.50561        -7.33827        -0.51194
C         -1.26221        -7.96200         0.17939
C          0.03418        -7.36709        -0.36975
C          1.26970        -8.13763        -0.08319
C          2.52833        -7.40691         0.24931
C          3.78015        -8.12760        -0.10371
C          4.97212        -7.31937        -0.50793
C          6.29034        -8.04841        -0.60198
C          7.51243        -7.26674        -0.34570
C         -6.11946        -9.22092         1.06411
C         -4.95908        -9.90321         1.06450
C         -3.76963        -9.44378         0.29707
C         -2.45726       -10.13869         0.39313
C         -1.27069        -9.48888         0.23615
C          0.00785       -10.20379         0.29252
C          1.22294        -9.59633         0.20392
C          2.55347       -10.35664         0.14197
C          3.69763        -9.57513        -0.59129
C          5.06572       -10.20845        -0.35686
C          6.22212        -9.51713        -0.37758
O          2.51000         2.05653         2.41535
O          6.23332        -3.63888         1.47675
O         -6.03345         5.36914         1.64734
O          5.50365        -7.60875        -1.81044
O          5.31986         0.07142        -1.10293
O          0.97811         1.58597        -0.79266
O          8.08575         1.23000        -1.77445
O         -1.81236         5.77057         1.95703
O         -1.90735         1.04161         1.57310
O         -8.21957         3.73931        -1.86034
O         -6.94893         1.31604        -2.07434
O         -4.02888         8.60201        -1.32428
O         -7.20941        -1.16181        -1.83897
O         -1.75145        -3.04240        -2.07111
O          3.36004        -8.02324         1.29001
O         -9.19035        -0.94220         1.32080
O         -4.08464        -0.79511        -1.88458
O          5.30986         6.90925         1.14686
O         -1.63492         3.45874        -0.91813
O         -0.25725        -5.53823        -1.90306
O          6.04320         4.60138        -1.65548
O         -5.89206        -5.81788        -1.65982
O          4.83016        -5.84254         1.37971
O          1.54049        -5.44768         1.42104
O         -4.79985         0.99606         1.02852
O          2.74995         7.12159         1.69551
O          6.13450         3.61516         1.81721
O          0.21296         5.94916        -1.05940
O         -5.37428         3.76142        -1.49370
O          3.25365         7.80566        -1.84038
O         -2.06485         7.16362        -1.40332
O         -1.86210        -1.46697         1.09595
O         -2.49941        -6.87451        -1.87106
O         -4.12178        -9.08229        -1.12057
O          9.60455        -1.18846        -1.68054
O         -7.02527        -2.75748         1.38688
O          3.71176        -0.26244         2.24516
O         -3.66332        -4.25682         0.66849
O         -5.67894         7.99100         1.76120
O          7.15500        -3.64398        -2.10051
O         -1.34881        -7.47282         1.48528
O          6.15148        -4.74561        -1.96899
O          3.24705        -2.14658        -0.98251
O          0.35447         3.21166         2.27420
O          0.92435        -0.73254        -1.39720
O         -9.11938         1.55914         1.04561
O          1.06947        -3.30359        -1.65508
O          1.76932         7.89234        -1.80380
O          0.75973        -7.96227        -1.47260
O         -5.89035        -3.26575        -2.00099
O          7.00860         3.48351        -1.78293
O         -3.89500         4.13029         1.74594
O          3.50341         4.10679        -0.54206
O          2.98611       -10.70773         1.45764
H          3.09416        -9.87151         1.96612
O         -4.66956        -6.81899         1.64947
H         -5.51271        -6.68708         2.14844
O          5.94923        -1.32799         2.08879
H          5.47404        -1.85813         2.76453
O         -7.32990        -6.92202         2.18311
H         -7.89927        -6.18311         2.48485
O          5.98157         1.24733         2.28619
H          5.84762         0.32367         2.61238
O         -1.32972         9.67224        -2.10616
H         -1.98053         9.01686        -2.45294
O         -6.66665        -8.30858        -1.09490
H         -5.88722        -8.76637        -1.49664
O          3.41141        -9.59520        -1.99620
H          4.10070        -9.06333        -2.45515
O          7.05791        -1.23447        -2.32399
H          7.90407        -1.33387        -2.81141
O         -9.58788         5.39706         1.19200
H         -8.92682         5.16252         1.87632
O          3.46197        -3.60247         2.25825
H          3.93816        -4.32302         2.72725
O          9.29197         1.29891         1.62430
H          9.90581         1.78674         2.21332
O          6.10398         7.87719        -2.28690
H          6.87200         8.32739        -2.69431
O          0.96362         5.68415         2.55913
H          0.39641         5.00108         2.98656
H         12.04293        -1.24964         0.29933
H         12.00360         1.18770         0.47010
H         10.86382         3.38695         0.09924
H          9.69635         5.62706        -0.09761
H          8.44933         7.75560        -0.51814
H          7.14421         9.96503        -0.41862
H          5.09573        11.14317         0.12254
H          2.54937        11.20889         0.24045
H          0.02726        11.19247        -0.10601
H         -2.38225        11.22228         0.09212
H         -5.03633        11.38104        -0.03334
H         -7.17795        10.21908         0.15812
H         -8.51852         7.98514         0.04052
H         -9.64959         5.88692        -0.80453
H        -11.08862         3.48635        -0.85642
H        -12.25025         1.28928        -0.24371
H        -12.19756        -1.11808        -0.09162
H        -10.92717        -3.37157        -0.00394
H         -9.63447        -5.47415         0.56811
H         -8.45045        -7.61949         0.55377
H         -6.97684        -9.60769         1.63591
H         -4.86246       -10.82994         1.65091
H         -2.46924       -11.22911         0.55346
H         -0.04112       -11.29940         0.39959
H          2.39129       -11.31437        -0.41339
H          5.09796       -11.29604        -0.19212
H          7.17581       -10.04270        -0.21296
H          8.44592        -7.81590        -0.14699
H          9.63789        -5.60693         0.11371
H         10.72643        -3.45253         0.41758
