         274
 CSIRO Nanostructure Databank - Neutral Graphene Oxide Data Set
C        -10.92793         0.76176        -0.70665
C         -9.78170         1.61757        -1.20795
C         -8.45708         0.94155        -0.79662
C         -7.34665         1.63514        -0.06277
C         -6.20014         0.85882         0.50710
C         -4.90643         1.57887         0.80900
C         -3.63853         0.79072         0.86011
C         -2.40788         1.54674         1.05499
C         -1.10864         0.81238         1.43543
C          0.09427         1.48500         0.77606
C          1.30224         0.77060         0.64457
C          2.58287         1.45461         0.29354
C          3.89039         0.87264         0.76868
C          5.11745         1.70902         0.91905
C          6.45460         1.05029         1.16388
C          7.60356         1.72809         0.48035
C          8.68817         0.87407        -0.17824
C         10.01590         1.61624        -0.24216
C         11.25410         0.84930        -0.22454
C         -9.77792         3.06759        -0.76609
C         -8.86490         3.95887        -1.28174
C         -7.34375         3.00383         0.61674
C         -6.08040         3.75918         0.33089
C         -4.84977         3.03837         0.54470
C         -3.62106         3.68145         0.66298
C         -2.42180         2.94221         0.99145
C         -1.10605         3.66980         1.26955
C         -0.02960         2.95880         0.39134
C          1.32980         3.66249         0.40606
C          2.43942         2.85717        -0.26213
C          3.73368         3.66250        -0.14962
C          5.02416         3.10863         0.37085
C          6.32029         3.86346         0.19266
C          7.55986         3.04348         0.11522
C          8.67058         3.61740        -0.76130
C          9.99136         2.94592        -0.48125
C         -8.56918         5.29141        -0.71574
C         -7.32688         5.83224        -0.39583
C         -6.09825         5.11159        -0.03822
C         -4.85361         5.84244         0.03878
C         -3.66346         5.16412         0.63133
C         -2.38859         5.95488         0.79971
C         -1.09765         5.21585         1.04402
C          0.17930         5.94925         0.72685
C          1.44874         5.16158         0.47133
C          2.68535         5.92298        -0.10331
C          3.63881         4.97591        -0.91112
C          4.98830         5.69041        -1.12080
C          6.26390         5.19752        -0.49324
C          7.50368         5.88204        -0.95112
C          8.80886         5.15059        -0.68366
C         -7.24081         7.27150        -0.44744
C         -6.03275         7.93459        -0.44800
C         -4.81167         7.20647        -0.20686
C         -3.51868         7.97791        -0.31831
C         -2.30897         7.30822         0.25499
C         -1.12296         8.17017         0.65152
C          0.19989         7.43660         0.43422
C          1.37041         8.07327        -0.24387
C          2.31162         7.13008        -1.00845
C          3.59208         7.83547        -1.53197
C          4.93047         7.11693        -1.56032
C          6.21868         7.94743        -1.73897
C          7.46739         7.16335        -1.37270
C         -5.97248         9.38175        -0.64737
C         -4.86411        10.09430        -0.37796
C         -3.63977         9.44337         0.21641
C         -2.35161        10.15555        -0.13952
C         -1.16030         9.55436         0.03237
C          0.13965        10.32410        -0.09509
C          1.29930         9.50825        -0.63782
C          2.40885        10.10026        -1.12304
C          3.63427         9.33585        -1.48657
C          4.93375         9.98416        -1.16447
C          6.10118         9.32159        -1.13014
C        -10.89292        -0.58071        -0.70641
C         -9.69514        -1.43733        -1.09479
C         -8.40173        -0.57122        -0.98752
C         -7.15758        -1.29166        -0.56920
C         -6.18005        -0.62471         0.34502
C         -4.91751        -1.37591         0.67510
C         -3.66348        -0.59149         0.74577
C         -2.41166        -1.40160         0.82434
C         -1.14272        -0.71539         1.21718
C          0.21074        -1.44706         1.21437
C          1.39040        -0.61440         0.81662
C          2.71203        -1.29517         0.75694
C          3.90032        -0.53884         1.28637
C          5.21296        -1.23525         1.51541
C          6.54141        -0.42585         1.69764
C          7.80191        -1.18069         1.25086
C          8.88827        -0.50233         0.47802
C          9.98466        -1.31360        -0.21479
C         11.26191        -0.49632        -0.25711
C         -9.65543        -2.67804        -0.12847
C         -9.13139        -3.89095        -0.30458
C         -7.05691        -2.77633        -0.79847
C         -6.15616        -3.62180         0.01977
C         -4.90214        -2.88369         0.47043
C         -3.67046        -3.49360        -0.16214
C         -2.35933        -2.77056         0.17727
C         -1.06562        -3.52526         0.22847
C          0.21925        -2.79092         0.49216
C          1.50896        -3.54643         0.43795
C          2.79539        -2.77795         0.62761
C          4.05802        -3.52804         0.96891
C          5.29274        -2.73757         1.29951
C          6.55179        -3.46696         1.69640
C          7.83339        -2.68959         1.45454
C          8.97951        -3.39382         0.81074
C         10.25859        -2.63100         0.54346
C         -8.73278        -5.15050        -0.46482
C         -7.41850        -5.81765         0.02189
C         -6.08507        -5.09463        -0.36995
C         -4.85936        -5.77542         0.30813
C         -3.58901        -5.02151        -0.10670
C         -2.29125        -5.73650         0.04845
C         -1.00284        -5.00668         0.24409
C          0.17550        -5.68138         0.47102
C          1.48524        -5.02055         0.63133
C          2.63165        -5.67992         0.99370
C          3.87665        -4.94246         1.51204
C          5.18874        -5.79655         1.47574
C          6.51575        -4.96295         1.41241
C          7.69521        -5.51547         0.63785
C          8.85752        -4.65507         0.34577
C         -7.26428        -7.25055        -0.45669
C         -6.04288        -7.88432        -0.50636
C         -4.79764        -7.22662        -0.11706
C         -3.60396        -7.89610        -0.05482
C         -2.35013        -7.19964         0.47096
C         -1.07046        -7.87413        -0.06554
C          0.13034        -7.16731         0.56324
C          1.41973        -7.92459         0.71714
C          2.71735        -7.20299         1.10725
C          3.92600        -7.63687         0.29887
C          5.11077        -6.91063         0.42475
C          6.27822        -7.35564        -0.29413
C          7.50317        -6.69926        -0.19303
C         -5.92720        -9.26745        -0.94209
C         -4.73668        -9.92098        -0.93861
C         -3.51215        -9.29396        -0.46315
C         -2.32734        -9.98604        -0.41662
C         -1.08870        -9.39167         0.21594
C          0.22270       -10.04430        -0.28144
C          1.47436        -9.21641        -0.00532
C          2.63791        -9.56328        -0.63267
C          3.84997        -8.79232        -0.52906
C          4.99834        -9.20085        -1.25929
C          6.17521        -8.50134        -1.15176
O         -7.33913         1.59132        -1.50689
O          7.37418        -3.06857         2.80132
O          0.91960        -2.97862        -0.77423
O         -9.81083         1.57042        -2.65949
H         -9.75900         0.62968        -2.93835
O         -1.96927        -1.39649         2.22311
O          7.54187        -5.70598         2.11464
O          5.04981        -3.27295        -0.06570
O         -7.33423        -0.78405        -1.94116
O         -7.39440        -3.18428        -1.92240
O          5.08668         6.01821        -2.54330
O         -5.88750         1.26942         1.86253
O          4.09952         3.85339         1.24262
O          1.31683         7.99414         1.21587
O          4.29683        -0.86470         2.62651
O         -8.14562         3.34268         1.46457
O         -3.28157         8.15638        -1.76066
H         -3.29525         7.27249        -2.18484
O          3.02821        -1.91220        -0.53113
O          3.62416        -4.75715         2.96446
O         -2.89780        -5.54456        -1.28598
O         -8.21958         3.75053        -2.44980
H         -8.50723         2.87441        -2.81328
O          8.22585         0.64158        -1.50579
O         -2.34120        -7.21015         1.90328
H         -2.00266        -8.08895         2.20258
O          1.53705         6.69436        -2.14063
H          1.81066         7.24434        -2.90972
O         -0.79150         3.48286         2.65530
H         -0.11626         4.16676         2.89447
O         -0.31034         5.83533         2.11625
O         -5.80204        -3.48444         1.41865
O          0.47892        -1.78270         2.61365
H          0.07377        -1.07160         3.16371
O          6.28906         5.10394         0.97561
O          3.42254         8.60542        -2.76244
O         -3.33531         5.77741         1.94204
O         -5.98234        -1.16000         1.67228
O          0.51424        10.76244         1.22190
H          0.68674         9.95304         1.75640
O          3.47558         0.75268        -0.64138
O          2.96839        -7.57020         2.47457
H          2.12399        -7.45051         2.96303
O          0.47897        -7.77941         1.83697
O         -1.20586        -9.63262         1.64385
H         -1.54773       -10.54137         1.77520
O         -1.00224        -7.72613        -1.50107
H         -1.63991        -7.03555        -1.79491
O          3.44138         6.47061         0.97447
H          3.70270         5.72834         1.57196
O          1.72697         4.30955         1.63294
O          5.23936        -6.48073         2.73761
H          6.18463        -6.69112         2.91981
O          5.76399         1.81079         2.21381
O          6.72743        -0.32593         3.11362
H          6.02130         0.25995         3.46723
O          2.01096         2.63071        -1.61915
H          2.60565         1.95189        -2.01115
O         -1.55319        -2.87564        -1.02615
O          8.96767        -0.52393         1.91085
O         -1.28005         8.36637         2.09208
H         -1.01857         7.51460         2.52871
O         -9.83179        -1.85908        -2.44634
H         -8.99284        -2.32728        -2.68117
O          6.33468         8.20480        -3.16454
H          6.17309         7.34929        -3.62049
O          2.52422        -3.79646         3.05619
H          2.42177        -3.70822         4.03524
O          3.07465         4.69097        -2.18431
H          3.55491         5.23818        -2.85355
O         -7.50839        -5.82858         1.47260
H         -8.29125        -6.35882         1.72889
O          9.52851        -1.62780        -1.53541
H          9.05329        -0.80423        -1.86820
O         -0.88668         0.88549         2.87009
H         -0.88531         1.84227         3.13392
O         -3.81363         9.44105         1.63663
H         -2.96996         9.13287         2.05410
O          0.12815       -10.28667        -1.68718
H         -0.17764        -9.44837        -2.10560
O         10.92931        -2.35572         1.77026
H         10.35159        -1.75067         2.29641
O         -3.94064        -3.15174        -1.55078
H         -3.21680        -3.55800        -2.08360
O          9.80728         5.55879        -1.61699
H          9.62341         5.07257        -2.45016
O         -4.86815        -5.73874         1.73984
H         -5.79501        -5.87117         2.05193
O         -5.86010        -5.27477        -1.76765
H         -6.42917        -4.63154        -2.25822
O          8.29896         3.28438        -2.12874
H          8.26171         2.27946        -2.15854
O         -0.54665         3.04749        -0.96114
H          0.19219         2.79052        -1.57168
H         12.21472        -1.04373        -0.30828
H         12.20057         1.41127        -0.26223
H         10.92021         3.52023        -0.62177
H          9.16645         5.42981         0.34320
H          8.42198         7.64697        -1.63613
H          7.01860         9.83494        -0.80669
H          4.88002        11.02070        -0.79725
H          2.42666        11.18883        -1.28948
H         -0.01615        11.23704        -0.72166
H         -2.39911        11.19183        -0.51191
H         -4.85966        11.18727        -0.50809
H         -6.88440         9.88150        -1.00773
H         -8.16716         7.83951        -0.62127
H         -9.41266         6.00556        -0.72778
H        -10.23066         3.29594         0.20827
H        -11.85956         1.26929        -0.41188
H        -11.79657        -1.13057        -0.39865
H        -10.17361        -2.50676         0.83562
H         -9.46753        -5.84653        -0.91414
H         -8.16714        -7.81266        -0.74802
H         -6.83739        -9.78266        -1.28401
H         -4.68077       -10.96623        -1.27776
H         -2.29653       -11.03570        -0.74812
H          0.33743       -11.04307         0.21979
H          2.65412       -10.46203        -1.26686
H          4.93430       -10.08900        -1.90347
H          7.06862        -8.82300        -1.70546
H          8.34352        -7.03630        -0.81899
H          9.68781        -5.11065        -0.21628
H         10.93824        -3.26550        -0.07805
