         621
 CSIRO Nanostructure Databank - Neutral Graphene Oxide Data Set
C          5.54051        31.74155        -0.51916
C          5.81573        33.06309        -0.56961
C          8.48627        27.63198        -0.34389
C          7.86082        28.71465         0.19747
C          6.81004        29.50609        -0.43539
C          8.32733        31.84815         0.87401
C          6.48425        30.75579         0.00802
C          8.32675        33.10335         0.24592
C          7.18653        33.71415        -0.56247
C          8.30710        35.94917        -0.20996
C          7.14635        35.21375        -0.37277
C          8.33063        37.38053        -0.30392
C         10.85134        23.38203        -0.00272
C         10.83064        24.76174         0.29968
C          9.70371        25.55621        -0.04048
C         10.71970        27.54983         0.95020
C          9.62792        26.91812         0.24371
C         10.68033        28.94792         1.34657
C          9.51586        29.71715         1.43832
C         10.74951        31.82441         1.17080
C          9.52613        31.15697         1.28940
C         10.79734        33.10667         0.46683
C          9.54901        33.81752         0.16784
C         10.76896        35.94866         0.14438
C          9.58506        35.23506        -0.03342
C         10.69923        37.39091         0.39402
C          9.50162        38.12679        -0.08011
C         10.81498        40.24906        -0.06097
C          9.60429        39.51186        -0.28488
C         10.91409        41.61455        -0.41077
C         13.21068        19.02618        -0.43193
C         13.16163        20.38007        -0.03309
C         12.01982        21.19099        -0.12746
C         13.18658        23.25093         0.65070
C         12.00864        22.59096         0.20074
C         13.20557        24.65136         0.95242
C         11.97864        25.41665         0.86177
C         13.11797        27.45896         1.76078
C         11.91474        26.79806         1.18256
C         13.22327        28.93086         1.69703
C         11.93184        29.63755         1.71193
C         13.28801        31.86153         1.52195
C         11.96157        31.17564         1.64573
C         13.32254        33.23646         0.94472
C         12.09709        33.81031         0.30032
C         13.32994        36.02704         0.52837
C         12.12057        35.29824        -0.05319
C         13.25995        37.43035         0.64965
C         11.98566        38.15543         0.67458
C         13.12462        40.39753         0.76798
C         11.99030        39.62192         0.44619
C         13.13162        41.80768         0.62008
C         12.04422        42.40943        -0.12015
C         12.83762        44.80268        -0.32615
C         12.06920        43.71911        -0.75093
C         13.30853        45.94334        -0.99819
C         15.75837        14.64930        -0.71796
C         15.64412        16.07780        -0.41532
C         14.43878        16.88853        -0.64988
C         15.67653        18.98287        -0.15097
C         14.41596        18.25880        -0.37717
C         15.67189        20.27515         0.28944
C         14.38192        20.95907         0.58114
C         15.68817        23.15435         1.10007
C         14.38071        22.43658         0.92636
C         15.70619        24.64424         0.81114
C         14.42528        25.29930         1.25008
C         15.73703        27.39960         1.74495
C         14.45655        26.65140         1.77466
C         15.69580        28.86919         2.01031
C         14.43292        29.62582         1.79326
C         15.76041        31.72408         1.40460
C         14.52678        31.04828         1.58782
C         15.83760        33.08154         0.79314
C         14.57862        33.83318         0.34212
C         15.82442        36.06070         0.70336
C         14.55113        35.33058         0.61899
C         15.78302        37.53836         0.97731
C         14.47393        38.24364         0.83279
C         15.58739        40.38977         1.64905
C         14.31634        39.66486         1.30018
C         15.60250        41.88223         1.53181
C         14.32502        42.56601         1.11267
C         15.60790        44.67440         0.45716
C         14.45746        44.00430         0.81229
C         15.60565        46.07156         0.07246
C         14.43741        46.71410        -0.55305
C         15.32702        49.07245        -0.68563
C         14.46417        48.04265        -1.08397
C         15.63455        50.29748        -1.29148
C         18.24783        10.41962        -1.19663
C         18.21377        11.81410        -1.02332
C         17.02373        12.55418        -0.95900
C         18.24176        14.71461        -0.64830
C         16.97876        13.97263        -0.74832
C         18.21884        16.09400        -0.52842
C         16.96596        16.84263        -0.32424
C         18.23443        19.01232        -0.34367
C         16.93697        18.31696        -0.68881
C         18.19176        20.47360        -0.25010
C         16.90292        21.10460         0.18009
C         18.24433        23.22744         0.78760
C         16.97100        22.45099         0.81801
C         18.17416        24.60887         1.25935
C         16.97819        25.30380         1.29066
C         18.20814        27.47936         1.41960
C         16.92650        26.73274         1.54961
C         18.23886        28.95971         1.61487
C         16.97821        29.65118         2.00444
C         18.25179        31.76632         1.72311
C         16.99403        31.09391         1.69090
C         18.31527        33.17188         1.54123
C         17.13684        33.82974         0.94149
C         18.31440        36.01783         1.40895
C         17.13119        35.32580         0.85721
C         18.24192        37.43265         1.76725
C         16.93404        38.17509         1.70196
C         18.18923        40.39257         1.47991
C         16.92129        39.67619         1.81649
C         18.13162        41.70513         1.03858
C         16.92424        42.56647         1.25153
C         18.10373        44.53062         0.02461
C         16.90457        43.96227         0.68301
C         18.13305        45.88141        -0.18444
C         16.91166        46.67261        -0.03681
C         18.14419        48.76403        -0.75052
C         17.05745        48.06172        -0.07600
C         18.14612        50.23731        -0.91368
C         16.90033        50.95827        -1.09156
C         18.16917        53.05535        -1.20110
C         16.95121        52.35343        -1.25567
C         18.20108        54.48105        -1.21992
C         20.73595         6.14412        -1.96238
C         20.68675         7.52599        -1.55402
C         19.49630         8.23996        -1.47050
C         20.67742        10.38924        -1.47171
C         19.48243         9.68426        -1.32031
C         20.60667        11.88016        -1.71096
C         19.54508        12.50639        -0.79983
C         20.67536        14.71825        -1.04531
C         19.49980        14.01927        -0.88793
C         20.74956        16.12184        -0.63216
C         19.46640        16.85176        -0.36087
C         20.70058        19.00709        -0.25113
C         19.46108        18.33736        -0.35186
C         20.75553        20.46761        -0.11869
C         19.47078        21.23804        -0.07820
C         20.72202        23.04464         1.18789
C         19.43233        22.58367         0.53955
C         20.74239        24.55441         1.43267
C         19.45341        25.30308         1.55987
C         20.67203        27.48406         1.65710
C         19.49109        26.77994         1.51407
C         20.69075        28.90267         1.90149
C         19.51079        29.63302         1.93215
C         20.69323        31.78315         2.13436
C         19.48622        31.07220         2.01949
C         20.75002        33.19720         1.91173
C         19.52104        33.88547         1.65055
C         20.76175        36.05658         1.65854
C         19.51308        35.33287         1.58729
C         20.78111        37.47539         1.59741
C         19.53242        38.22801         1.84867
C         20.66068        40.31015         1.23545
C         19.46584        39.67964         1.52022
C         20.65105        41.57615         0.49225
C         19.29290        42.27164         0.32517
C         20.61650        44.33595        -0.58997
C         19.30048        43.68720        -0.19669
C         20.64061        45.83507        -0.95063
C         19.48168        46.62087        -0.14609
C         20.69584        48.74209        -0.91485
C         19.43526        47.98477        -0.83500
C         20.65412        50.14503        -1.05388
C         19.38224        50.88776        -1.06046
C         20.61443        53.04902        -1.21887
C         19.40109        52.32637        -1.15892
C         20.63460        54.46433        -1.19997
C         19.39303        55.17795        -1.17711
C         20.69450        57.37128        -1.13089
C         19.34656        56.68687        -1.08566
C         20.73217        58.74648        -1.25852
C         23.17764         3.44491        -2.77003
C         21.94398         4.09341        -2.61406
C         23.14986         6.20652        -2.85382
C         21.88042         5.50335        -2.44583
C         23.12397         7.65132        -0.94235
C         21.94315         8.24499        -1.34901
C         23.15529        10.39016        -1.14741
C         21.97226         9.68224        -1.79144
C         23.17074        11.87532        -1.11922
C         21.96316        12.60719        -1.60914
C         23.24782        14.75217        -0.98637
C         21.97274        14.08121        -1.37607
C         23.27780        16.13971        -0.78988
C         22.00447        16.88832        -0.89192
C         23.25926        19.00173        -0.21435
C         21.98404        18.34486        -0.55493
C         23.23720        20.36308         0.14097
C         22.03556        21.08247         0.30029
C         23.20512        23.16568         0.81604
C         22.01941        22.46996         0.64697
C         23.23896        24.63049         0.86051
C         21.94528        25.35865         1.03605
C         23.26349        27.49893         1.63882
C         21.96698        26.82831         1.33156
C         23.25757        28.84789         2.07558
C         21.95956        29.54013         2.30561
C         23.21810        31.81696         2.51139
C         21.92367        31.06110         2.49983
C         23.23794        33.22010         2.02747
C         21.98492        33.90268         1.85027
C         23.20817        36.03537         1.45813
C         21.99222        35.33360         1.63809
C         23.20957        37.45049         1.40016
C         21.99095        38.16850         1.48310
C         23.17937        40.33503         1.01060
C         21.97640        39.67710         1.63935
C         23.14920        41.66681         0.58333
C         21.89979        42.36781         0.30314
C         23.17481        44.37787        -0.56038
C         21.88178        43.65537        -0.20300
C         23.12875        45.90367        -0.51641
C         21.93869        46.57844        -0.70355
C         23.14507        48.74864        -0.87800
C         21.92147        48.02360        -0.81937
C         23.12118        50.16050        -1.08781
C         21.88780        50.83758        -1.20854
C         23.15032        53.03558        -1.52115
C         21.85953        52.29120        -1.46150
C         23.17179        54.44195        -0.95280
C         21.87910        55.20088        -1.14482
C         23.18743        57.29891        -0.84395
C         21.89996        56.58603        -1.04900
C         23.21242        58.80864        -0.97651
C         21.95108        59.49500        -1.31457
C         23.24628        61.51166        -1.79361
C         22.00271        60.83120        -1.68328
C         24.39812         4.11526        -2.62580
C         25.56404         6.18500        -1.95651
C         24.43176         5.52748        -2.44198
C         25.61687         7.56683        -1.52982
C         24.41668         8.28774        -1.20964
C         25.66418        10.40666        -1.20681
C         24.45020         9.68842        -1.19097
C         25.65417        11.84040        -1.13690
C         24.47524        12.57375        -1.10573
C         25.67634        14.70731        -0.73360
C         24.46728        14.02107        -0.98561
C         25.70944        16.10453        -0.51724
C         24.48949        16.84226        -0.56077
C         25.72851        18.89816        -0.02461
C         24.49570        18.26429        -0.28584
C         25.73774        20.25923         0.63225
C         24.55490        21.10347         0.13801
C         25.78529        23.16677         1.03572
C         24.48705        22.43977         0.84484
C         25.78401        24.63206         1.17599
C         24.52577        25.38612         1.07577
C         25.72576        27.43443         1.82452
C         24.48532        26.79645         1.52519
C         25.70840        28.82194         2.16453
C         24.48861        29.52792         2.27513
C         25.69513        31.75610         2.01113
C         24.50935        31.01411         2.46768
C         25.69729        33.12927         1.82045
C         24.45209        33.85938         1.77449
C         25.67760        36.09003         1.97473
C         24.50929        35.28360         1.29309
C         25.71042        37.48007         1.33196
C         24.45635        38.19306         1.25289
C         25.62354        40.28458         0.63785
C         24.39702        39.57621         1.01613
C         25.61668        41.74545         0.69497
C         24.39336        42.42315         0.47342
C         25.56157        44.62313         0.30267
C         24.35449        43.80157         0.17961
C         25.60139        45.99607        -0.22008
C         24.37196        46.64619        -0.49676
C         25.63907        48.74874        -0.83473
C         24.39194        48.05127        -0.74070
C         25.64410        50.17470        -1.09502
C         24.38610        50.88214        -1.17652
C         25.64344        52.96412        -1.63644
C         24.39674        52.25462        -1.38231
C         25.64942        54.51416        -1.66050
C         24.41261        55.22604        -1.31728
C         25.70408        57.31547        -1.20217
C         24.45333        56.58043        -1.10854
C         25.68067        58.74435        -1.27049
C         24.49730        59.47053        -1.29285
C         24.45092        60.86034        -1.62434
C         26.83964         8.27329        -1.47804
C         28.14330        10.37770        -1.14343
C         26.90255         9.67486        -1.26230
C         28.20465        11.77601        -1.01124
C         26.95869        12.58076        -1.32661
C         28.20953        14.62007        -0.37195
C         26.91262        13.91260        -0.59840
C         28.20200        16.09216        -0.33784
C         26.96779        16.78978        -0.33435
C         28.20000        18.92765        -0.11296
C         26.96484        18.20600        -0.14709
C         28.18046        20.35997         0.03608
C         27.02588        21.04023         0.41548
C         28.19360        23.22056         0.49048
C         27.04264        22.46753         0.64518
C         28.21716        24.66657         0.80354
C         26.97102        25.33448         1.26945
C         28.23765        27.31239         2.04521
C         26.96465        26.70518         1.66400
C         28.30012        28.83731         2.20724
C         26.98667        29.56526         2.29123
C         28.13542        31.64125         1.37491
C         26.97332        31.03856         2.07754
C         28.11413        33.11589         1.29189
C         26.96789        33.82045         1.56153
C         28.16772        36.00014         1.07590
C         27.07848        35.30859         1.85378
C         28.18363        37.38615         0.98825
C         26.91707        38.10175         1.06000
C         28.20982        40.20969         0.67004
C         26.92818        39.50231         0.61065
C         28.19066        41.68213         0.71853
C         26.89417        42.44599         0.74921
C         28.10890        44.60573         0.03908
C         26.89734        43.92028         0.49982
C         28.09221        45.97430        -0.10647
C         26.83744        46.68939        -0.24647
C         28.14132        48.74577        -0.78929
C         26.86351        48.06557        -0.62114
C         28.15159        50.11090        -1.42194
C         26.86529        50.87247        -1.21857
C         28.12863        53.01262        -1.41031
C         26.90572        52.27114        -1.41872
C         28.11734        54.43150        -1.42314
C         26.93594        55.19182        -1.43160
C         26.91048        56.59922        -1.26509
C         29.41388        12.47893        -0.82108
C         30.65842        14.62234        -0.57339
C         29.47467        13.89277        -0.63661
C         30.67721        16.04845        -0.37242
C         29.42952        16.78313        -0.30765
C         30.68724        18.89537        -0.18870
C         29.44207        18.21818        -0.23150
C         30.73025        20.36031        -0.32171
C         29.40449        21.12114        -0.28560
C         30.77824        23.27934         0.20242
C         29.42799        22.59941        -0.03065
C         30.82194        24.59299         0.89173
C         29.54713        25.33039         1.06000
C         30.85383        27.32862         2.03087
C         29.54486        26.58217         1.87412
C         30.78214        28.80858         1.77476
C         29.54693        29.50149         1.81957
C         30.65775        31.63873         0.93030
C         29.42241        30.87327         1.24017
C         30.63236        33.00489         0.71292
C         29.34159        33.74953         0.75064
C         30.64526        35.95153         0.45416
C         29.35228        35.25485         0.61596
C         30.64692        37.36798         0.49080
C         29.41230        38.07697         0.68146
C         30.69130        40.24258         0.64907
C         29.40411        39.50701         0.67146
C         30.67552        41.69700         0.28119
C         29.35603        42.35725         0.06434
C         30.57566        44.52142        -0.65493
C         29.30684        43.80148        -0.30064
C         30.59392        46.00259        -0.58422
C         29.39615        46.73183        -0.00061
C         30.62415        48.82557        -0.66159
C         29.34053        48.13116        -0.54116
C         30.60545        50.21628        -0.84975
C         29.39542        50.91514        -1.09872
C         29.35787        52.29886        -1.20835
C         31.88270        16.74826        -0.26030
C         33.13923        18.88489        -0.05154
C         31.91799        18.17241        -0.14892
C         33.19650        20.30113         0.07793
C         31.98128        21.07636         0.00045
C         33.24204        23.11682         0.53120
C         32.00556        22.44929         0.25223
C         33.26777        24.49783         0.86023
C         32.02438        25.19729         1.14358
C         33.29467        27.34861         1.26157
C         32.16722        26.54502         1.83793
C         33.17471        28.72522         1.09620
C         31.93817        29.43802         1.22674
C         33.05495        31.49647         0.09744
C         31.76671        30.73937         0.43287
C         33.02218        32.99741        -0.08090
C         31.80285        33.75644         0.29647
C         33.07570        35.87534        -0.15291
C         31.81306        35.16012         0.20499
C         33.10112        37.39485        -0.08497
C         31.87434        38.11353         0.29776
C         33.17043        40.23205         0.24452
C         31.93601        39.49676         0.39370
C         33.17849        41.64664         0.04806
C         31.90504        42.30982        -0.29836
C         33.13619        44.53535        -0.48612
C         31.88063        43.77328        -0.66765
C         33.09711        45.95001        -0.44503
C         31.90317        46.70806        -0.49762
C         31.85024        48.11019        -0.52664
C         34.42347        20.97796         0.24391
C         35.70001        23.08994         0.50327
C         34.47628        22.38306         0.42987
C         35.73055        24.49410         0.65751
C         34.50129        25.20026         0.89875
C         35.74403        27.31958         0.87803
C         34.52834        26.63414         1.04255
C         35.75866        28.78600         0.94059
C         34.42927        29.49762         0.93935
C         35.64663        31.61754         0.30601
C         34.38724        30.83518         0.29115
C         35.60978        32.97648         0.14240
C         34.36252        33.72876        -0.10003
C         35.55860        35.92255         0.05712
C         34.37906        35.20295         0.02309
C         35.58951        37.36541         0.05001
C         34.39196        38.09440         0.08124
C         35.65500        40.21625         0.16049
C         34.40402        39.51392         0.19491
C         35.68568        41.73162         0.26832
C         34.36360        42.40307        -0.05067
C         34.32760        43.79553        -0.28185
C         36.94836        25.22641         0.54190
C         38.17372        27.38686         0.38353
C         36.96650        26.62717         0.60034
C         38.18643        28.77744         0.30781
C         36.95799        29.51832         0.48223
C         38.13338        31.63177         0.04981
C         36.91389        30.89808         0.34275
C         38.11450        33.00395        -0.06818
C         36.87330        33.73201         0.23915
C         38.12481        35.94168        -0.09593
C         36.85863        35.22029         0.21733
C         38.06845        37.37370        -0.05373
C         36.85613        38.06754         0.04115
C         36.83336        39.50311         0.07178
C         39.39730        29.52623         0.06283
C         40.60568        31.69126        -0.18024
C         39.38605        30.89866        -0.05503
C         40.58116        33.03091        -0.35975
C         39.28811        33.75806        -0.63724
C         39.27998        35.23889        -0.33555
O         30.84293        41.30108         1.67266
O         30.21759        26.63954         3.16320
O         22.14945        13.49641        -2.73388
O         23.98272        31.56312         3.72211
O         16.38767        29.24381         3.27259
O         11.78327        30.47846         2.91074
O         28.85695        25.52697        -0.21699
O         20.24435        21.20879        -1.33573
O         25.09292        22.50801         2.19444
O         23.20166        58.14915         0.34682
O         29.02715        42.73411        -1.30011
O         28.27516        27.94817         3.36046
O         28.43480        30.93421         0.12259
O         13.29092        44.71594         1.01664
O         22.86825        11.09681         0.10124
O         27.00489        12.83968        -2.71758
O         17.17647        43.70910         2.12893
O         30.02393        20.77949        -1.55183
O         26.22968        44.58311         1.62018
O         14.16954        21.40813         1.95511
O         18.16796        28.40983         0.25283
O         17.31011        21.14631        -1.24550
O         33.63324        33.37699        -1.34247
O         26.20279        39.77545        -0.64740
O         33.72959        30.82150        -1.02137
O         19.85053        46.72707         1.15889
O         16.81073        33.13418        -0.31269
O         16.72573        35.80334        -0.46989
O         21.77983        26.30787        -0.05377
O         20.28275        16.31227         0.75294
O         36.95670        34.52009         1.52009
O         11.65661        32.97646        -0.80740
O         25.59213        53.74479        -2.89699
O         18.57346        48.03052        -1.98639
O         23.97832        25.16757        -0.29809
O         31.87567        42.72469        -1.69597
O         20.21650        24.84508         2.76605
O         27.70583        42.19103         1.99303
O         27.46450        13.97109         0.74779
O         11.09368        37.72981         1.77954
O         25.40846        36.31168         3.30323
O         13.64473        26.86589         2.97691
O         23.15364         7.14665        -3.64661
O         21.81147        30.15791         3.63067
O         22.44803        52.76031        -2.76070
O         14.63892        39.94330         2.67733
O         13.33306        33.09731         2.37946
O          8.26114        29.10227         1.49547
O          7.13318        31.21981         1.17302
O         29.05369        34.37501        -0.54696
O         16.45100        22.60339         2.19497
O         30.09838        23.33490        -1.09512
O         27.13320        30.49600         3.43208
O         15.45424        38.22943        -0.28685
O         16.76271        38.82468         2.99086
O         14.73914        42.45636         2.54137
O         16.07700        48.82676         0.51236
O         32.98059        36.68292        -1.37060
O         30.37324        45.34870        -1.86169
O         18.89929        37.73083         3.05443
O         35.21388        29.42464         2.16873
O         21.96244        17.83581        -1.98994
O         16.28602        16.47589         0.88379
O         19.78386        43.65612        -1.59227
O         19.82244        41.38551        -0.70510
O         32.67113        26.22099         3.17146
H         31.88482        26.08777         3.75099
O          7.60602        33.51114        -1.96643
H          8.44318        34.00730        -2.10041
O         16.82814        18.37272        -2.14501
H         16.94513        19.31758        -2.39943
O         20.64209        22.38231         2.48849
H         20.23568        23.03292         3.11397
O         31.23616        30.24632        -0.83578
H         31.99137        30.19066        -1.46715
O         23.41271        44.06921        -1.98217
H         23.28985        43.10439        -2.11115
O         20.36815        45.97413        -2.33625
H         19.87676        45.16760        -2.62569
O         24.87381        35.27457        -0.11594
H         24.17108        34.81327        -0.61968
O         24.84366        21.38782        -1.25734
H         24.04635        21.77557        -1.67638
O         18.47832        57.21867        -2.09938
H         18.83154        56.95497        -2.97366
O         23.11143         6.46836        -0.26608
H         24.02698         6.19731        -0.05151
O         14.45774        33.64607        -1.09438
H         15.36694        33.77702        -1.45885
O         15.73443        24.70250        -0.65813
H         15.91564        25.62768        -0.92856
O         25.60190        19.95099         2.03972
H         25.49497        20.80905         2.52290
O         27.65276        35.36752         3.18616
H         26.90962        35.76252         3.74931
O         22.13906         9.77421        -3.24344
H         22.46377         8.89698        -3.57086
O         22.13112        39.93809         3.07341
H         21.47962        39.38685         3.55812
O         12.32592        35.39365        -1.49288
H         13.06000        34.76176        -1.70882
O         20.13209        12.01172        -3.06647
H         20.81320        11.62191        -3.65858
O         29.67705        46.81574         1.43358
H         28.88923        47.19267         1.87946
O         36.74044        42.27593        -0.52885
H         36.52963        42.11194        -1.47084
O         39.11379        33.69488        -2.10821
H         39.19487        32.75367        -2.37376
O         19.95895        12.21602         0.56116
H         19.34645        12.67096         1.17634
O         23.29639        54.21065         0.49628
H         23.26607        55.08348         0.94505
O         28.21463        49.86434        -2.87127
H         28.19196        50.73582        -3.32123
H          4.53404        31.39406        -0.80543
H          5.01375        33.72981        -0.92792
H          8.10118        27.22580        -1.29164
H          6.35245        29.11692        -1.35544
H          6.19843        35.74019        -0.56328
H          7.40355        37.90349        -0.58291
H          9.94577        22.91612        -0.41878
H          8.86901        25.07662        -0.57299
H          8.72528        40.06137        -0.65404
H         10.06373        42.08771        -0.92414
H         12.28670        18.53511        -0.77367
H         11.09121        20.75230        -0.52351
H         11.45589        43.83322        -1.65796
H         12.77329        46.29574        -1.89291
H         14.83949        14.09606        -0.96692
H         13.51136        16.38037        -0.95501
H         13.72540        48.28022        -1.86390
H         14.90351        50.77565        -1.96044
H         17.29936         9.86317        -1.25882
H         16.06548        12.02277        -1.07505
H         16.01341        52.91388        -1.37976
H         17.25112        55.03461        -1.24078
H         19.81305         5.54717        -1.86781
H         18.53770         7.72447        -1.63268
H         18.86534        56.95309        -0.10256
H         19.78166        59.28607        -1.38714
H         23.18761         2.35029        -2.87041
H         21.02482         3.49519        -2.52355
H         23.24121        62.57542        -2.06949
H         21.07237        61.36960        -1.91394
H         25.33211         3.53757        -2.55532
H         26.50090         5.60541        -1.89239
H         26.63392        59.27070        -1.43037
H         25.39648        61.39902        -1.78219
H         27.77446         7.72361        -1.66627
H         29.07771         9.79289        -1.14421
H         29.07922        54.95673        -1.32187
H         27.86364        57.14703        -1.21942
H         30.35797        11.91018        -0.77652
H         31.62159        14.10717        -0.71165
H         31.54819        50.78303        -0.79953
H         30.28657        52.87727        -1.08536
H         32.83366        16.19608        -0.28698
H         34.08220        18.31835        -0.03886
H         34.05147        46.48996        -0.34112
H         32.79004        48.68398        -0.53000
H         35.36114        20.40270         0.22994
H         36.64538        22.54121         0.37818
H         35.94119        41.98537         1.33772
H         35.28160        44.34318        -0.23780
H         37.88254        24.67892         0.34726
H         39.11208        26.83369         0.22728
H         39.00592        37.94371        -0.14071
H         37.78822        40.04795         0.02895
H         40.34953        28.97828        -0.00240
H         41.56788        31.16649        -0.07567
H         41.52336        33.59460        -0.43588
H         40.21192        35.79371        -0.52833
