         600
 CSIRO Nanostructure Databank - Neutral Graphene Oxide Data Set
C         23.55968        27.67277         2.95013
C         23.54318        29.05094         2.75867
C         23.40530        31.90047         2.08222
C         23.34628        33.24488         1.77884
C         23.21026        36.08287         1.07096
C         23.15621        37.42670         0.77180
C         23.07292        40.32528         0.30847
C         23.00130        41.66192         0.08330
C         22.96961        44.61149        -0.32781
C         22.98234        45.99219        -0.31884
C         25.84909        24.77788         2.46231
C         24.73379        25.50711         2.81392
C         26.03095        27.64118         2.54683
C         24.72312        26.92114         2.73086
C         25.88590        29.05238         2.02827
C         24.67817        29.75333         2.25075
C         25.76016        31.83868         1.44213
C         24.60397        31.16125         1.92269
C         25.70797        33.23966         1.15538
C         24.48536        33.94823         1.31170
C         25.60321        36.03683         0.58074
C         24.42628        35.35534         0.99255
C         25.55037        37.43489         0.28678
C         24.31941        38.14339         0.38631
C         25.44523        40.20649        -0.33014
C         24.27306        39.55118         0.07640
C         25.39434        41.61596        -0.76353
C         24.09192        42.38860        -0.57924
C         25.38844        44.54072        -0.71608
C         24.15738        43.87170        -0.52555
C         25.41155        45.97427        -0.71336
C         24.19734        46.69662        -0.51095
C         25.39462        48.80364        -0.69151
C         24.21635        48.11765        -0.49285
C         28.12243        23.20232         1.39926
C         28.08470        24.61414         1.37309
C         27.01522        25.40703         1.89234
C         28.19541        27.50599         1.26190
C         27.06631        26.82334         1.82536
C         28.19915        28.96697         1.13535
C         27.01757        29.70984         1.48204
C         28.13634        31.79933         0.75535
C         26.97458        31.11483         1.22066
C         28.10883        33.21270         0.53219
C         26.88658        33.92835         0.71457
C         28.02991        36.01045         0.05133
C         26.84248        35.32457         0.45221
C         27.98295        37.41711        -0.20377
C         26.74622        38.12332        -0.09402
C         27.89244        40.21220        -0.73169
C         26.69376        39.51598        -0.37396
C         27.86280        41.66277        -0.86632
C         26.65784        42.37708        -0.82462
C         27.86016        44.52205        -0.88375
C         26.63565        43.80771        -0.84255
C         27.87890        45.96191        -0.96218
C         26.63207        46.69778        -0.90907
C         27.84333        48.87543        -1.22274
C         26.61057        48.11496        -0.92609
C         27.96542        50.31342        -0.94558
C         30.47991        23.13756         0.65793
C         29.23150        22.48712         0.97709
C         30.50314        24.53646         0.66047
C         29.19681        25.29014         0.62571
C         30.47164        27.42337         0.27112
C         29.29856        26.76454         0.86424
C         30.46940        28.90578         0.09985
C         29.29710        29.64569         0.59143
C         30.52253        31.74959         0.08187
C         29.32729        31.06953         0.48346
C         30.51362        33.16249        -0.07010
C         29.29002        33.89170         0.11765
C         30.45183        36.00364        -0.48003
C         29.25723        35.30173        -0.10486
C         30.41086        37.39650        -0.70893
C         29.16414        38.10887        -0.59794
C         30.30011        40.21311        -1.41471
C         29.09648        39.50392        -0.85896
C         30.32398        41.67248        -1.04587
C         29.10433        42.37675        -0.92772
C         30.33800        44.49697        -0.80977
C         29.09973        43.80460        -0.87897
C         30.34223        45.94211        -0.79243
C         29.10989        46.63847        -0.98258
C         30.41986        48.81555        -0.95723
C         29.17140        48.08604        -1.22487
C         30.43157        50.22662        -0.99389
C         29.17256        50.93854        -0.95794
C         32.73936        20.24720        -0.08975
C         31.68795        20.96844         0.37511
C         32.91628        23.09174         0.06229
C         31.68956        22.40356         0.38681
C         32.98603        24.51838         0.15353
C         31.78412        25.24073         0.57138
C         32.98588        27.42928        -0.10369
C         31.78796        26.74914         0.41372
C         32.94944        28.85826        -0.26141
C         31.75500        29.60268        -0.06992
C         32.95537        31.71215        -0.43200
C         31.74776        31.01570        -0.13323
C         32.94017        33.13885        -0.55435
C         31.71727        33.86001        -0.41186
C         32.89102        35.96919        -0.92897
C         31.69882        35.28201        -0.60772
C         32.88742        37.40737        -1.08710
C         31.63248        38.11974        -0.98609
C         32.82142        40.25060        -1.29616
C         31.60812        39.50640        -1.16617
C         32.78544        41.65714        -1.24638
C         31.55027        42.36115        -1.02942
C         32.81042        44.46326        -0.68054
C         31.55994        43.77754        -0.84820
C         32.75678        45.87797        -0.27920
C         31.54194        46.64858        -0.60029
C         32.84339        48.77301        -0.51177
C         31.60277        48.07751        -0.66782
C         32.88663        50.19189        -0.66373
C         31.68454        50.92444        -0.90554
C         32.98915        52.98962        -1.00298
C         31.77920        52.33470        -1.07395
C         35.25876        18.91711         0.46011
C         35.24916        20.11383        -0.39465
C         33.95411        20.90130        -0.68038
C         35.31595        23.05504        -0.51514
C         34.07438        22.36673        -0.29773
C         35.33657        24.50302        -0.51505
C         34.15904        25.23056        -0.20043
C         35.37391        27.38625        -0.61438
C         34.16136        26.68962        -0.28700
C         35.37550        28.81467        -0.69627
C         34.16536        29.55378        -0.53725
C         35.38047        31.67191        -0.92745
C         34.16761        30.98104        -0.63453
C         35.37514        33.11346        -1.02859
C         34.15200        33.83283        -0.84289
C         35.34060        35.92692        -1.31544
C         34.13412        35.24845        -1.03195
C         35.30854        37.35348        -1.77783
C         34.06748        38.10426        -1.37004
C         35.29636        40.24146        -1.48592
C         34.08796        39.54188        -1.41077
C         35.34061        41.70310        -1.53413
C         34.00967        42.44729        -1.40071
C         35.29749        44.49817        -0.70852
C         34.03066        43.82985        -0.89361
C         35.31752        45.86032        -0.33572
C         34.05509        46.59653        -0.09858
C         35.26445        48.73704        -0.08406
C         34.06035        48.06948        -0.24611
C         35.32367        50.15631        -0.21612
C         34.13540        50.88124        -0.54575
C         35.46749        52.96638        -0.61635
C         34.19904        52.29212        -0.72578
C         35.60353        54.34889        -0.93977
C         37.71533        19.00651         0.67659
C         36.42709        18.37450         0.88474
C         37.76633        20.29323         0.12760
C         36.55509        20.87127        -0.48763
C         37.79851        22.98959        -1.06859
C         36.50788        22.32903        -0.69517
C         37.75214        24.48187        -0.92698
C         36.57381        25.20028        -0.78469
C         37.77395        27.37654        -1.06504
C         36.57980        26.66180        -0.83018
C         37.80891        28.79528        -1.04499
C         36.59627        29.52113        -0.91786
C         37.82866        31.62915        -1.31597
C         36.59957        30.94845        -1.05464
C         37.77686        33.06044        -1.78744
C         36.56418        33.81148        -1.31074
C         37.81942        35.94834        -1.53371
C         36.57013        35.22733        -1.39354
C         37.80763        37.38741        -1.48914
C         36.59626        38.08135        -1.50214
C         37.82464        40.26900        -1.29602
C         36.59824        39.55099        -1.79566
C         37.80242        41.67138        -1.06792
C         36.58094        42.40511        -1.13269
C         37.77771        44.47825        -0.52956
C         36.54842        43.78637        -0.82080
C         37.76236        45.87347        -0.20880
C         36.52837        46.54996        -0.13376
C         37.74925        48.70570         0.32659
C         36.45421        47.95242         0.41571
C         37.72894        50.09089         0.35457
C         36.54431        50.84214         0.02608
C         37.88038        52.94356        -0.03023
C         36.62258        52.25107        -0.19184
C         37.97340        54.33029        -0.34647
C         36.80858        54.99866        -0.82730
C         40.10707        16.42650         2.02143
C         38.93578        17.04173         1.63660
C         40.16310        19.07998         1.04080
C         38.92943        18.37236         1.13424
C         40.19381        20.42532         0.55819
C         38.98834        21.05196         0.10392
C         40.23984        23.11082        -0.38220
C         39.01745        22.37734        -0.39093
C         40.28153        24.47638        -0.80050
C         39.03397        25.15053        -1.19180
C         40.30022        27.37252        -1.11476
C         39.03081        26.65896        -1.32502
C         40.28257        28.81267        -1.13208
C         39.05972        29.50597        -1.17044
C         40.29825        31.65272        -1.49212
C         39.04718        30.93749        -1.31819
C         40.26722        33.09266        -1.65338
C         39.08095        33.80965        -1.65066
C         40.26829        36.00668        -1.72830
C         39.05973        35.26088        -1.65988
C         40.28686        37.42458        -1.54494
C         39.05847        38.11949        -1.43085
C         40.27216        40.25749        -1.09332
C         39.03649        39.54884        -1.25762
C         40.26580        41.66201        -0.85566
C         39.03269        42.36884        -0.79582
C         40.24851        44.48404        -0.31491
C         39.01571        43.77439        -0.54472
C         40.24408        45.88019        -0.04116
C         38.99944        46.58254         0.05543
C         40.22581        48.68772         0.50087
C         38.98573        47.97075         0.32890
C         40.21629        50.08016         0.73652
C         38.91818        50.82396         0.89818
C         40.22253        52.93007         0.71129
C         39.02175        52.25449         0.45552
C         40.29057        54.33995         0.49167
C         39.19476        55.03728        -0.08271
C         40.38959        57.14240         0.21209
C         39.31863        56.44922        -0.28810
C         42.57025        16.46895         2.28736
C         41.35195        17.10460         1.91948
C         42.63353        19.12219         1.31127
C         41.38207        18.43970         1.43013
C         42.65914        20.46771         0.83274
C         41.43698        21.12186         0.47360
C         42.69947        23.17623        -0.07783
C         41.45577        22.47206         0.02357
C         42.70900        24.53075        -0.48473
C         41.49327        25.20923        -0.78156
C         42.70362        27.42652        -0.70250
C         41.47372        26.65281        -0.95290
C         42.72680        28.85110        -1.06126
C         41.53398        29.53593        -1.21689
C         42.79212        31.67612        -1.51519
C         41.52179        30.96956        -1.45517
C         42.81582        33.09202        -1.71087
C         41.53430        33.78524        -1.96972
C         42.81371        36.05246        -2.04786
C         41.51249        35.30557        -2.08328
C         42.81569        37.49359        -1.67631
C         41.53412        38.16855        -1.52172
C         42.73697        40.34494        -1.35475
C         41.49973        39.55171        -1.28774
C         42.73823        41.72388        -0.84891
C         41.50615        42.38680        -0.68244
C         42.72957        44.49522        -0.28666
C         41.49039        43.78567        -0.39911
C         42.71820        45.90606        -0.01151
C         41.48592        46.58493         0.13068
C         42.68148        48.70050         0.66621
C         41.46933        47.99429         0.42514
C         42.65531        50.08714         1.00823
C         41.41355        50.78224         0.98588
C         42.54307        52.89201         1.63464
C         41.40551        52.21326         1.15304
C         42.42151        54.35055         1.74966
C         41.40936        55.05199         1.01874
C         42.35752        57.21422         1.71002
C         41.41139        56.47763         0.96134
C         43.77487        17.12290         2.15536
C         45.10523        19.14188         1.50333
C         43.84507        18.45615         1.66166
C         45.13163        20.48411         1.05368
C         43.90353        21.15857         0.71384
C         45.17354        23.22641         0.24240
C         43.92393        22.49865         0.25713
C         45.20088        24.56839        -0.08913
C         44.02263        25.22321        -0.74619
C         45.26641        27.44090        -0.62514
C         43.98311        26.71046        -0.46504
C         45.27122        28.81135        -0.98422
C         44.02142        29.47281        -1.51344
C         45.24426        31.67060        -1.34102
C         44.01508        30.97626        -1.39516
C         45.24911        33.09928        -1.41105
C         44.02878        33.79260        -1.67073
C         45.31129        35.97114        -1.47312
C         44.09528        35.25705        -1.88537
C         45.36315        37.45933        -1.71602
C         44.02326        38.14545        -1.52009
C         45.27855        40.30875        -0.96659
C         44.06913        39.61573        -1.46017
C         45.23994        41.67653        -0.69488
C         43.97384        42.40937        -0.69430
C         45.24206        44.55912        -0.57908
C         43.95481        43.79405        -0.43952
C         45.17860        45.95259        -0.00906
C         43.97112        46.62542         0.14328
C         45.11857        48.75029         0.78149
C         43.94008        48.02767         0.53121
C         45.09419        50.09422         1.27399
C         43.84451        50.79703         1.37298
C         45.01956        52.74919         2.30394
C         43.78310        52.15599         1.82382
C         45.08581        53.93993         3.07581
C         43.19553        55.14023         2.61275
C         43.19470        56.54622         2.59055
C         47.55266        19.11580         1.57327
C         46.34809        18.49146         1.77887
C         47.62368        20.46765         1.11856
C         46.38875        21.16884         0.91231
C         47.65775        23.21422         0.37557
C         46.41175        22.53902         0.56209
C         47.69500        24.60535         0.09262
C         46.41569        25.38541         0.26443
C         47.69720        27.41816        -0.48640
C         46.45002        26.75709        -0.35105
C         47.70138        28.81813        -0.74086
C         46.47978        29.51993        -0.98121
C         47.70048        31.66252        -1.16058
C         46.49338        30.96024        -1.19307
C         47.70480        33.10811        -1.16281
C         46.47280        33.81488        -1.25210
C         47.70780        35.95571        -0.92750
C         46.48025        35.25662        -1.22248
C         47.69141        37.37442        -0.73792
C         46.50467        38.13873        -0.98256
C         47.61808        40.20043        -0.19509
C         46.47335        39.53032        -0.73937
C         47.64258        41.60397        -0.03777
C         46.45089        42.37307        -0.29518
C         47.67220        44.46838         0.14429
C         46.46614        43.77167        -0.16962
C         47.69943        45.89699         0.27929
C         46.45351        46.66771         0.05839
C         47.63264        48.73032         1.04803
C         46.42103        48.13655         0.48218
C         47.57311        50.04391         1.53643
C         46.31554        50.75548         1.58481
C         47.51011        52.75952         2.39633
C         46.27933        52.09206         2.08212
C         47.49334        54.01101         3.02907
C         46.28036        54.56930         3.42196
C         50.11758        20.39230         0.88322
C         48.86468        21.10676         0.82491
C         50.10323        23.13147         0.07391
C         48.88370        22.47705         0.42714
C         50.14211        24.52167        -0.17053
C         48.91130        25.26552        -0.14116
C         50.15478        27.37201        -0.53646
C         48.92794        26.69311        -0.36921
C         50.14488        28.78144        -0.73062
C         48.94873        29.50321        -0.78835
C         50.13737        31.64452        -0.84909
C         48.95724        30.95512        -0.95595
C         50.20685        33.09030        -1.23894
C         48.91596        33.82254        -1.02307
C         50.13809        35.90840        -0.43486
C         48.92168        35.22728        -0.80005
C         50.07734        37.27265        -0.07772
C         48.86475        37.99446        -0.22413
C         50.10694        40.15545         0.50628
C         48.77377        39.39550         0.20152
C         50.10518        41.60516         0.37053
C         48.87686        42.29982         0.24382
C         50.11729        44.42001         0.48212
C         48.88343        43.72843         0.29667
C         50.11137        45.83175         0.68638
C         48.87841        46.57071         0.62878
C         50.04166        48.60026         1.42629
C         48.87634        47.98992         0.99697
C         50.06349        49.95641         2.08229
C         48.78470        50.72723         1.89118
C         50.03103        52.79920         2.22462
C         48.77445        52.08278         2.18112
C         51.27638        20.94085         0.43598
C         52.67386        23.07245        -0.20451
C         51.31568        22.31381        -0.07544
C         52.63706        24.54065        -0.16807
C         51.40169        25.22938        -0.30288
C         52.64380        27.36217        -0.44413
C         51.40729        26.65056        -0.44076
C         52.67686        28.77884        -0.61774
C         51.42681        29.51990        -1.02001
C         52.66789        31.65893        -0.68578
C         51.38539        30.91387        -0.41064
C         52.65246        33.08060        -0.69778
C         51.42283        33.79898        -0.71212
C         52.63641        35.85292        -0.22873
C         51.39935        35.18016        -0.43753
C         52.64326        37.22128         0.29597
C         51.30210        37.95720         0.41931
C         52.58181        40.11650         0.41937
C         51.36716        39.42753         0.40699
C         52.59170        41.56405         0.45484
C         51.35932        42.28235         0.41678
C         52.58660        44.41583         0.60448
C         51.35577        43.71207         0.49704
C         52.57582        45.82249         0.84043
C         51.33652        46.48491         0.96026
C         52.60289        48.64679         1.49650
C         51.30683        47.86125         1.45283
C         52.52440        50.12825         1.49294
C         51.31570        50.76261         1.76438
C         51.21692        52.18700         1.93031
C         55.04621        23.13101         0.42794
C         53.92145        22.41165         0.18522
C         55.08623        24.56375         0.26192
C         53.86310        25.25262        -0.02293
C         55.10398        27.38762        -0.17269
C         53.87217        26.67366        -0.19483
C         55.12595        28.80490        -0.39390
C         53.87484        29.49194        -0.56048
C         55.11424        31.64964        -0.72268
C         53.87367        30.94492        -0.66759
C         55.09687        33.05984        -0.80113
C         53.88989        33.79185        -0.71487
C         55.09256        35.95211        -0.42840
C         53.87421        35.21754        -0.50667
C         55.13182        37.31849        -0.02716
C         53.88834        38.01239         0.24901
C         55.08630        40.14532         0.61349
C         53.83683        39.39126         0.41219
C         55.08476        41.60874         0.47908
C         53.83281        42.28654         0.47172
C         55.05589        44.43899         0.53042
C         53.82754        43.71397         0.53017
C         55.04042        45.87055         0.63937
C         53.81720        46.55665         0.87536
C         55.00612        48.72173         0.85950
C         53.82941        47.96738         1.04387
C         54.92328        50.15950         0.95928
C         53.75663        50.82086         1.23451
C         57.55814        24.63438         0.62898
C         56.31107        25.28378         0.33505
C         57.56023        27.40653         0.03890
C         56.32475        26.69172         0.07433
C         57.59072        28.79815        -0.29169
C         56.35306        29.50617        -0.48274
C         57.59042        31.63322        -0.77418
C         56.37000        30.93588        -0.69447
C         57.62692        33.05850        -0.85964
C         56.35461        33.77814        -1.02017
C         57.62484        35.96351        -0.59073
C         56.34158        35.30133        -0.83848
C         57.61156        37.35333        -0.30403
C         56.36949        38.00781        -0.00908
C         57.62476        40.20363         0.15112
C         56.41562        39.40748         0.42620
C         57.57384        41.62005         0.23348
C         56.30845        42.31499         0.39846
C         57.51712        44.48699         0.30287
C         56.29312        43.74474         0.40503
C         57.48929        45.91584         0.35055
C         56.25481        46.61335         0.53821
C         57.47551        48.74520         0.45518
C         56.24253        48.04000         0.60322
C         58.74134        25.31911         0.61141
C         60.00347        27.40473         0.18050
C         58.78312        26.71430         0.28577
C         60.02462        28.74738        -0.19415
C         58.83988        29.45838        -0.42435
C         60.07568        31.68081        -0.53014
C         58.88298        30.87108        -0.96897
C         60.04682        33.03231        -0.51101
C         58.83014        33.78305        -0.75556
C         60.04761        35.97440        -0.60364
C         58.83617        35.23433        -0.68414
C         60.04410        37.34907        -0.43929
C         58.84363        38.07670        -0.27248
C         60.01056        40.29169        -0.30574
C         58.83145        39.52395        -0.13908
C         59.98188        41.66638        -0.19318
C         58.77705        42.36689         0.06323
C         59.94759        44.57866         0.01395
C         58.75659        43.81198         0.13086
C         59.92329        45.95677         0.05705
C         58.69936        46.65307         0.22424
C         58.66119        48.07755         0.27142
O         52.06070        48.03111         2.73015
O         56.29141        34.67636        -2.17793
O         51.92580        37.32929         1.58166
O         30.19699        27.98274        -1.06292
O         43.93518        54.51581         3.62354
O         51.99955        22.47262        -1.35998
O         31.98446        26.17040         1.73861
O         43.63135        35.74752        -3.22351
O         34.66979        42.29468        -2.70598
O         41.42138        34.46218        -3.27354
O         49.22985        39.64215         1.56601
O         39.05007        25.80335        -2.52614
O         55.85612        39.65319         1.76494
O         28.49734        48.47999        -2.46830
O         33.30305        46.13399         1.08798
O         43.45195        40.23629        -2.63746
O         43.22807        27.12591         0.70354
O         24.47780        41.84931        -1.88883
O         36.06663        20.00551        -1.60111
O         46.58303        47.74569        -0.93557
O         28.78908        25.21440        -0.82183
H         29.19277        25.98371        -1.28517
O         37.57172        32.96486        -3.25566
H         38.39413        32.59302        -3.64181
O         50.40145        33.07014        -2.71312
H         50.99866        32.31745        -2.91959
O         51.49441        29.71543        -2.46737
H         51.50558        28.83183        -2.89184
O         35.22143        37.28305        -3.27553
H         35.86907        36.60434        -3.56832
O         44.25818        25.13482        -2.19864
H         44.29647        24.18492        -2.43947
O         44.06547        29.20074        -2.96882
H         43.33218        29.70073        -3.38750
O         30.12536        40.18581        -2.88356
H         30.91106        40.62094        -3.27902
O         51.30226        30.74688         1.03450
H         51.29912        31.63665         1.44509
O         36.68330        39.63508        -3.27287
H         36.02246        38.98495        -3.62294
O         45.67091        37.61257        -3.14505
H         44.98156        37.09302        -3.62861
O         36.23143        47.78997         1.86976
H         35.37893        47.31342         1.98175
O         59.02562        30.70614        -2.43055
H         58.98795        31.60288        -2.82701
O         38.66382        50.88424         2.35605
H         38.41331        49.98028         2.64603
O         46.30301        25.63952         1.71881
H         46.24257        24.76695         2.16335
O         33.75127        20.89324        -2.12363
H         34.64168        20.73155        -2.52455
O         37.98679        22.73812        -2.51987
H         38.42368        23.52607        -2.91165
O         26.56847        27.80793         3.93175
H         25.88553        28.29419         4.44219
O         50.11169        49.69575         3.53436
H         50.88446        49.09189         3.67635
O         45.41580        44.77040        -2.03195
H         44.70660        45.37806        -2.33192
H         22.63137        27.15523         3.23523
H         22.60383        29.58827         2.94053
H         22.49460        31.40745         2.44605
H         22.39142        33.76872         1.91535
H         22.28187        35.57537         1.36321
H         22.18632        37.93717         0.83071
H         22.21221        39.83451         0.78248
H         22.11513        42.21488         0.42545
H         22.01431        44.08497        -0.20011
H         22.05009        46.55586        -0.17273
H         25.81040        23.68320         2.53659
H         23.81608        24.98632         3.12691
H         25.37953        49.90173        -0.69776
H         23.27589        48.66421        -0.33455
H         27.25618        22.63623         1.77046
H         27.06088        50.90404        -0.74316
H         29.17513        21.39099         0.98572
H         29.19523        52.02587        -0.79990
H         32.64203        19.15570        -0.17884
H         30.79232        20.43075         0.71536
H         33.00452        54.07819        -1.14669
H         30.87499        52.92042        -1.28740
H         34.30742        18.46057         0.76707
H         34.73397        54.91242        -1.30299
H         36.38218        17.46096         1.49296
H         36.86054        56.06197        -1.09648
H         40.09022        15.39358         2.39791
H         37.99734        16.47635         1.70686
H         40.44385        58.23490         0.09878
H         38.52532        56.99897        -0.81184
H         42.54027        15.43935         2.67209
H         42.35383        58.31231         1.66377
H         44.69325        16.59492         2.44369
H         43.85109        57.09599         3.27740
H         48.47519        18.55534         1.77440
H         46.35340        17.45385         2.13735
H         48.42898        54.51484         3.30183
H         46.24976        55.49064         4.01711
H         50.13024        19.35288         1.23760
H         50.02460        53.88712         2.37572
H         52.19133        20.33375         0.40575
H         52.12341        52.80258         1.84474
H         55.96344        22.59259         0.70033
H         53.95254        21.31477         0.23277
H         55.82699        50.75804         0.78359
H         53.76933        51.91914         1.25920
H         57.57289        23.56291         0.86791
H         57.48550        49.84243         0.49468
H         59.68529        24.79843         0.82877
H         60.94662        26.86914         0.36017
H         60.99839        29.23901        -0.32096
H         61.02802        31.16911        -0.33310
H         60.96506        33.57782        -0.25238
H         61.01362        35.46292        -0.70578
H         61.00942        37.87206        -0.41476
H         60.96521        39.79916        -0.53153
H         60.92098        42.21739        -0.33025
H         60.91598        44.07721        -0.11052
H         60.85780        46.52858        -0.03496
H         59.60103        48.63829         0.16514
