         651
 CSIRO Nanostructure Databank - Neutral Graphene Oxide Data Set
C          6.01674        31.94747        -1.37723
C          5.99254        33.29267        -1.28763
C          8.38137        27.61144        -1.10089
C          8.45863        29.02235        -1.14600
C          7.23434        29.80471        -1.19116
C          8.48601        31.92196        -1.06236
C          7.24524        31.17950        -1.19483
C          8.47197        33.29039        -0.94012
C          7.18190        34.06369        -0.77967
C          8.49998        36.15179        -1.19606
C          7.29927        35.47119        -1.30424
C          8.60105        37.55777        -1.46434
C         10.73904        23.15312        -0.96735
C         10.75592        24.56358        -0.94238
C          9.55746        25.31300        -0.96912
C         10.92215        27.45266        -1.32073
C          9.53969        26.73773        -1.27634
C         10.94724        28.95265        -1.22768
C          9.69240        29.70681        -1.15257
C         10.96573        31.82238        -0.46196
C          9.80470        31.21311        -1.27994
C         10.86540        33.28163        -0.27321
C          9.70429        34.02164        -0.73710
C         10.87639        36.19550        -0.47100
C          9.69665        35.42784        -0.76580
C         10.91226        37.57823        -0.66054
C          9.77602        38.28595        -1.21071
C         11.04806        40.42764        -1.12458
C          9.85582        39.70141        -1.35807
C         11.10249        41.83325        -1.17068
C         13.18820        18.73392        -0.97158
C         13.15778        20.17969        -0.88053
C         11.98997        20.88618        -0.96235
C         13.25124        23.07186        -0.61938
C         11.92986        22.34579        -0.70158
C         13.27666        24.54231        -0.75398
C         12.03295        25.27739        -0.80811
C         13.27813        27.36848        -0.40866
C         12.07159        26.66961        -0.84741
C         13.39516        28.82320        -0.49461
C         12.19734        29.65852        -0.78716
C         13.43380        31.57408         0.18306
C         12.10798        31.05939        -0.27001
C         13.66876        33.01426         0.33537
C         11.83588        34.09333         0.30799
C         13.33899        36.02570        -0.03256
C         12.05026        35.47677        -0.01558
C         13.43143        37.48823        -0.02299
C         12.10202        38.32870        -0.27665
C         13.49443        40.33532        -0.69290
C         12.25756        39.71571        -0.72258
C         13.63200        41.76786        -1.18343
C         12.33366        42.54899        -1.03645
C         13.69730        44.63813        -1.02224
C         12.37260        43.91846        -0.92257
C         13.67037        46.09918        -0.64202
C         15.56456        14.76954         0.26918
C         15.62803        15.90579        -0.48526
C         14.35765        16.51769        -1.04372
C         15.64175        18.70669        -1.07492
C         14.36548        18.02720        -0.97318
C         15.68837        20.08090        -0.97089
C         14.46772        20.84392        -0.49344
C         15.68433        22.96571        -1.08384
C         14.50772        22.32140        -0.84046
C         15.75513        24.47407        -1.28376
C         14.50608        25.17079        -0.80930
C         15.91790        27.28158        -0.50627
C         14.62371        26.56614        -0.42209
C         15.87975        28.66693        -0.34187
C         14.64047        29.39453        -0.36906
C         15.87794        31.60958        -0.54850
C         14.69581        30.84298        -0.08500
C         15.71436        33.06106        -1.02857
C         14.63051        33.76594        -0.22658
C         15.81135        35.91729        -0.62357
C         14.66531        35.24944         0.12304
C         15.87203        37.40566        -0.67045
C         14.67340        38.19987        -0.30903
C         16.02750        40.25391        -0.69503
C         14.69640        39.56592        -0.48646
C         15.99024        41.67144        -0.18050
C         14.81946        42.46515        -0.53645
C         15.94704        44.51898         0.23211
C         14.78534        43.81823        -0.34683
C         15.72173        45.91663         0.69195
C         14.67310        46.72771         0.07790
C         15.63639        48.75459         1.20082
C         14.66476        48.13362         0.38652
C         15.73169        50.13813         1.40655
C         18.16684        11.70527         3.38903
C         17.96209        12.82329         2.48030
C         16.78702        13.07831         1.79087
C         18.09187        14.59860         0.12450
C         16.77447        14.02131         0.64301
C         18.08863        15.90222        -0.58740
C         16.89829        16.53106        -0.84457
C         18.17646        18.65056        -1.50690
C         16.83053        17.88401        -1.55325
C         18.21389        20.06432        -0.93740
C         16.91730        20.80833        -1.12397
C         18.16527        22.89214        -0.97625
C         16.92258        22.19215        -1.15400
C         18.07308        24.18829        -0.46855
C         17.00693        25.10603        -0.68425
C         18.48896        27.21749        -0.19196
C         17.13617        26.49815        -0.54324
C         18.43553        28.74690        -0.44249
C         17.12083        29.48160        -0.33711
C         18.21565        31.57487        -1.32044
C         17.01775        30.90892        -0.77345
C         18.24320        33.10480        -1.43092
C         17.03290        33.81175        -0.99640
C         18.35268        35.87083        -0.82986
C         17.09168        35.16297        -0.76776
C         18.35695        37.26829        -0.46941
C         17.18955        38.03455        -0.50678
C         18.28658        40.00532         0.43626
C         17.20803        39.44529        -0.19238
C         18.19372        41.38869         1.04271
C         17.07611        42.22051         0.44230
C         18.32509        44.19030         1.38396
C         17.14189        43.67650         0.64774
C         18.32483        45.38141         2.07450
C         16.44654        46.48954         1.69276
C         18.06770        48.47180         2.26176
C         16.62833        47.91491         1.90244
C         18.12846        49.94203         2.09805
C         16.92492        50.70967         1.93553
C         18.13520        52.73841         2.57342
C         16.95101        52.10110         2.21904
C         18.13728        54.11470         3.20482
C         20.58532         7.89942         5.47193
C         20.51304         9.01094         4.62288
C         19.37334         9.82598         4.46383
C         20.69445        11.53784         3.30949
C         19.38142        11.07277         3.74108
C         20.94928        12.80590         2.84334
C         19.07836        13.70021         2.15436
C         20.62722        14.67816         0.41603
C         19.27361        14.37519         0.98981
C         20.70618        15.86418        -0.50784
C         19.41811        16.46788        -0.99361
C         20.74477        18.66249        -1.13699
C         19.47565        17.91519        -1.35284
C         20.69034        20.05610        -1.60036
C         19.45314        20.84591        -1.34599
C         20.65583        23.02662        -1.56753
C         19.44593        22.21657        -1.19319
C         20.84806        24.47130        -1.33120
C         19.95549        25.25141        -0.59212
C         20.77860        27.28152        -1.50704
C         19.74042        26.61031        -0.83587
C         20.61878        28.72672        -1.88616
C         19.52767        29.45271        -1.14118
C         20.65907        31.56418        -1.67430
C         19.48554        30.83217        -1.32623
C         20.65833        32.97604        -1.84130
C         19.54131        33.81276        -1.52110
C         20.78465        36.03393        -1.05789
C         19.57004        35.22068        -1.18904
C         20.77972        37.26838        -0.29167
C         19.58858        37.89766        -0.02652
C         20.74108        39.82776         1.18106
C         19.41332        39.09590         0.90261
C         20.71526        41.31046         1.60654
C         19.53892        42.09557         1.07240
C         20.75841        44.20263         1.60926
C         19.56110        43.46829         1.28099
C         20.70044        45.55252         1.96598
C         19.45918        46.25801         2.19029
C         20.58999        48.45660         2.29048
C         19.37029        47.68617         2.29811
C         20.60186        49.87291         2.28026
C         19.35085        50.62546         2.26415
C         20.63034        52.74957         2.79284
C         19.34885        52.02632         2.47171
C         20.55812        54.23627         2.50830
C         19.34944        54.92893         2.82457
C         20.51578        57.07189         2.61507
C         19.33071        56.30958         2.86016
C         20.55588        58.46358         2.81828
C         22.95026         5.59137         7.16270
C         21.76449         6.15763         6.69488
C         23.05239         7.54315         5.09037
C         21.78806         7.17041         5.71035
C         23.02079         8.58173         4.13774
C         21.70498         9.22388         3.70064
C         23.22668        11.23656         3.04714
C         21.89647        10.70929         3.50171
C         23.22660        12.41319         2.17560
C         22.06648        13.13727         2.00712
C         23.26565        14.43632         0.10982
C         21.93101        14.03564         0.82451
C         23.23441        15.89046        -0.43747
C         21.98652        16.63824        -0.54667
C         23.24880        18.78524        -0.96184
C         21.98630        18.00835        -0.94290
C         23.23888        20.15612        -1.25458
C         22.02633        20.80438        -1.74724
C         23.20823        23.07698        -1.85359
C         21.96762        22.29441        -1.87589
C         23.17426        24.42258        -2.14936
C         21.95519        25.15282        -1.90494
C         23.20052        27.28004        -2.19420
C         21.95441        26.57652        -1.89111
C         23.12715        28.75698        -2.30638
C         21.91908        29.47846        -1.83320
C         23.21638        31.56211        -1.44885
C         21.91495        30.84299        -1.73185
C         23.14663        33.03084        -1.79572
C         21.94768        33.55824        -2.15047
C         23.31662        36.22553        -1.38772
C         21.99512        35.70759        -1.66194
C         23.33435        37.50273        -0.69784
C         22.12538        37.75833         0.22279
C         23.26568        40.01761         0.81159
C         22.04386        39.18701         0.80178
C         23.28012        41.38173         1.29993
C         22.02572        42.05677         1.44622
C         23.22588        44.17676         1.63514
C         22.02736        43.47371         1.57291
C         23.14979        45.65092         1.41469
C         21.97214        46.26768         2.14804
C         23.14121        48.46681         1.86870
C         21.91648        47.76053         2.29957
C         23.16144        49.95433         2.04341
C         21.81801        50.63025         2.18119
C         22.97893        52.78790         1.81641
C         21.83017        52.03085         2.22548
C         22.84370        54.23304         1.57041
C         21.66909        54.95598         2.09544
C         22.87906        57.12134         1.89860
C         21.69259        56.38840         2.15408
C         22.93820        58.48973         2.22296
C         21.76075        59.17664         2.67484
C         23.05159        61.24012         2.86038
C         21.84609        60.57318         2.96264
C         24.17732         6.06665         6.70821
C         25.59936         7.55962         5.43394
C         24.28577         7.03256         5.67333
C         25.97088         8.28561         4.29731
C         24.16768         9.00355         3.42700
C         25.67131        10.89590         2.75598
C         24.40985        10.33349         2.98261
C         25.70508        12.39812         2.45330
C         24.48436        12.92678         1.70508
C         25.69227        14.91387         0.93857
C         24.48476        14.07493         0.95123
C         25.76624        16.15440         0.17470
C         24.56984        16.73169        -0.45088
C         25.72058        18.93143        -0.47235
C         24.49769        18.18453        -0.58609
C         25.73342        20.35600        -0.73392
C         24.42298        21.00078        -0.95922
C         25.67851        23.33083        -1.25527
C         24.41773        22.46698        -1.27242
C         25.72700        24.33908        -2.42042
C         24.39630        25.14017        -2.67627
C         25.67055        27.32741        -2.67224
C         24.39631        26.61851        -2.35259
C         25.66507        28.82697        -2.85478
C         24.35221        29.54287        -2.65836
C         25.66780        31.74551        -2.12330
C         24.38079        30.99811        -2.29111
C         25.63370        33.04143        -1.35416
C         24.30283        33.84513        -1.25985
C         25.75516        35.84338        -1.64200
C         24.42164        35.34167        -1.62920
C         25.78685        37.88566        -0.89516
C         24.48170        38.24699        -0.41244
C         25.70501        39.94200         0.92745
C         24.46095        39.43486         0.41662
C         25.78297        41.26500         1.69069
C         24.50240        42.05047         1.48978
C         25.71172        44.25387         1.24913
C         24.54296        43.50049         1.89116
C         25.62532        45.67450         1.08955
C         24.44237        46.38067         1.50805
C         25.21841        48.47862         0.49799
C         24.34096        47.80734         1.53997
C         25.27445        50.01049         0.51993
C         24.08368        50.71400         1.10885
C         25.30802        52.88899         0.93662
C         24.13616        52.16763         1.33187
C         25.33088        54.28821         1.01583
C         24.05253        55.01085         1.09641
C         25.38062        57.13653         1.50502
C         24.04465        56.53460         1.12102
C         25.40347        58.46598         1.89416
C         24.19675        59.19707         2.16564
C         24.22895        60.55629         2.49061
C         27.01088         9.23069         4.11499
C         28.13971        11.11608         3.07341
C         26.93237        10.34657         3.24001
C         28.22569        12.31752         2.36330
C         26.96469        12.80722         1.69558
C         28.24012        14.95154         1.10976
C         26.97165        14.30993         1.47940
C         28.21006        16.20652         0.54221
C         26.96589        16.86657         0.15323
C         28.19329        19.00680        -0.17041
C         26.93782        18.24954        -0.22905
C         28.19190        20.48347        -0.50687
C         26.90319        21.11486        -0.83723
C         28.16448        23.12080        -1.57219
C         26.95727        22.49379        -1.26426
C         28.17328        24.53809        -1.94637
C         26.95498        25.21871        -2.19527
C         28.16530        27.32848        -2.34436
C         26.94715        26.61202        -2.38276
C         28.20908        28.81289        -2.48507
C         26.94815        29.61499        -2.69721
C         28.17760        31.68270        -1.97008
C         26.94703        31.02689        -2.24136
C         28.21011        33.11449        -1.61344
C         26.94255        33.74171        -1.15754
C         28.15265        35.91717        -0.77467
C         26.91273        35.22038        -1.19776
C         28.24303        37.45325        -0.65349
C         26.92709        38.07667        -0.14153
C         28.65870        40.00686         1.03404
C         26.75247        39.03641         0.91517
C         28.39778        41.46219         1.01629
C         27.06045        42.11854         1.31983
C         28.03275        44.32322         0.47865
C         26.90488        43.57468         0.93087
C         27.93529        45.71520         0.25524
C         26.72089        46.38513         0.50376
C         27.80353        48.65731         0.00552
C         26.56150        47.82582         0.21070
C         27.82985        50.01879         0.66993
C         26.53824        50.77951         0.51757
C         27.79106        52.90206         0.64670
C         26.53932        52.15353         0.68254
C         27.78552        54.27664         0.82876
C         26.57052        55.01268         1.02419
C         26.57072        56.39011         1.29850
C         29.42390        13.03858         2.16306
C         30.70026        14.99358         1.31884
C         29.48481        14.29805         1.49582
C         30.75632        16.26930         0.69113
C         29.49212        16.81529         0.15395
C         30.71992        19.01093        -0.25015
C         29.47140        18.24972        -0.29533
C         30.68415        20.34633        -0.85468
C         29.43988        21.11336        -0.96033
C         30.69821        23.12380        -1.62545
C         29.44478        22.42477        -1.43278
C         30.66870        24.45756        -2.34191
C         29.39798        25.23632        -2.08303
C         30.66673        27.35187        -2.52150
C         29.39037        26.62556        -2.26265
C         30.66918        28.84805        -2.36111
C         29.40058        29.48615        -1.82219
C         30.67337        31.71039        -1.60115
C         29.39136        30.98420        -1.94248
C         30.62366        33.16169        -2.12463
C         29.38195        33.81733        -1.58055
C         30.76568        35.92246        -0.99946
C         29.47426        35.15911        -0.96136
C         30.75576        37.23515        -0.54661
C         29.53440        37.83307         0.14955
C         30.72686        40.13477        -0.16410
C         29.57432        39.35634         0.26277
C         30.70035        41.50717        -0.02108
C         29.40397        42.19006         0.18343
C         30.54103        44.44609        -0.16206
C         29.28962        43.66323         0.01928
C         30.49123        45.80924        -0.11722
C         29.15540        46.46307        -0.16909
C         30.37431        48.72956         0.00063
C         29.12112        47.96500        -0.18963
C         30.31582        50.09613         0.19113
C         29.07796        50.81446         0.36086
C         29.02530        52.18770         0.42066
C         31.91700        17.04807         0.60813
C         33.12032        19.22488         0.18622
C         31.91899        18.40106         0.11870
C         33.14462        20.52865        -0.22116
C         31.99363        21.11848        -0.92293
C         33.16931        23.25266        -1.33414
C         31.92107        22.56069        -1.24135
C         33.23847        24.44024        -2.27936
C         31.95703        25.26731        -2.21527
C         33.21141        27.40521        -2.62967
C         31.95652        26.61146        -2.41523
C         33.19419        28.90116        -2.54031
C         31.93031        29.61033        -2.23037
C         33.08381        31.74614        -2.40989
C         31.90616        30.97188        -2.08264
C         33.02476        33.15277        -2.40361
C         31.92604        33.92590        -1.90536
C         33.25905        36.00613        -1.21038
C         32.00113        35.26993        -1.45027
C         33.21697        37.35261        -0.81189
C         31.95820        38.02500        -0.60469
C         33.17923        40.18698        -0.56298
C         31.93568        39.41324        -0.44136
C         33.17249        41.66419        -0.38102
C         31.92535        42.35567         0.09582
C         33.09258        44.49068        -0.33809
C         31.80635        43.72248        -0.59479
C         33.02368        45.98445        -0.56748
C         31.68412        46.63385        -0.24206
C         31.61291        48.00460        -0.15041
C         34.30549        21.44829         0.08516
C         35.56174        23.38469        -0.84939
C         34.33749        22.70319        -0.77339
C         35.67335        24.67217        -1.42211
C         34.53100        25.26049        -2.15628
C         35.70637        27.57923        -1.95251
C         34.54452        26.75345        -2.40257
C         35.72041        29.00374        -2.01349
C         34.46155        29.66615        -2.35439
C         36.16948        32.09944        -1.98376
C         34.30842        31.01762        -2.63983
C         36.03730        33.42348        -1.53228
C         34.92399        34.24302        -1.89042
C         35.67843        36.00598        -0.44604
C         34.58954        35.39522        -1.19186
C         35.62014        37.36155        -0.10431
C         34.42315        38.08894        -0.42677
C         35.45757        40.19496         0.53384
C         34.42078        39.46538        -0.28688
C         35.54421        41.69089         0.26017
C         34.42451        42.39867        -0.04542
C         34.28107        43.85892        -0.11790
C         36.82006        25.43993        -1.26261
C         38.00109        27.55011        -1.10164
C         36.85173        26.84911        -1.50290
C         38.01628        28.95098        -1.04940
C         36.89929        29.72003        -1.53468
C         38.06774        31.72636        -0.54663
C         37.02511        31.15363        -1.36586
C         38.06524        33.09991        -0.19743
C         36.97636        33.92678        -0.58389
C         37.96907        35.88284         0.53532
C         36.87018        35.26858        -0.16356
C         37.92401        37.26057         0.79236
C         36.77267        38.04547         0.45462
C         36.74154        39.42972         0.63969
C         39.14735        29.56343        -0.42194
C         40.24033        31.52086         0.64354
C         39.16394        30.91097        -0.10430
C         40.22593        32.84479         0.96913
C         39.12650        33.69555         0.57723
C         39.08242        35.05241         0.89418
O         17.49485        13.45974        -0.53931
O         17.09937        45.71893         2.64396
O         20.06283        13.83830         3.13331
O         18.01633        29.40543         0.82261
O         33.17994        28.20209        -3.85485
O         26.30465        32.99166        -0.06475
O         20.19476        15.58050        -1.86342
O         17.02100        48.21667         3.26517
O         33.15868        41.13753        -1.73473
O         27.78500        39.25064         1.83748
O         23.06335        54.52208         0.12610
O         24.16679        50.49431        -0.31644
O         26.16124        15.12832         2.35224
O         14.18903        30.97875         1.31575
O         30.54217        28.24587        -3.67811
O         28.11635        42.03255         2.34304
O         22.17683        46.85584         3.45808
O         28.92788        42.73648        -1.10870
O         12.56531        22.67776         0.63189
O         29.49198        17.17199        -1.28319
O         21.07242        22.71491        -2.93666
O         24.06947        16.01517        -1.62448
O         35.42423        31.72747        -3.09798
O         25.87672        37.18209        -2.09792
O         28.77380        35.19694         0.32415
O         13.88419        26.84362         0.80790
O         17.11997        44.40550        -0.66555
O         18.94418        18.34918        -2.69052
O         21.32490         8.60662         2.50525
O         29.08685        47.19430        -1.43761
O         24.09274        22.01512         0.10991
O         11.89059        29.52897        -2.24404
O         19.14075        24.59578         0.32704
O         23.49961        31.38515        -0.08246
O         15.54116        36.60158        -1.88485
O         21.07864        13.42081        -0.21303
O         34.91801        25.80210        -3.46471
O         28.26432        20.00546         0.90372
O         24.85956        31.84379        -3.36909
O         22.80671        11.39254         4.46139
O         21.50282        39.08668         2.20258
O         17.96798        32.23645        -2.61072
O         12.76398        33.60140         1.23203
O         31.52083        20.35242        -2.07455
O         10.31195        27.00302        -2.53365
O         24.34509        48.05725        -0.55854
O         25.65403        27.95189        -4.01491
O         21.37898        20.18257        -2.89230
O         21.93932        34.83594        -2.73975
O         25.16000         8.06145         3.15898
O         12.62913        38.07400         1.04802
O         26.95512        48.36635        -1.10985
O         27.89978        29.35176        -3.79142
O         34.11429        33.83622        -2.95344
O         23.39799        29.22183        -3.71196
O         25.88106        41.00715         3.11905
H         26.84276        40.91480         3.32464
O         17.80003        41.20156         2.43725
H         18.61067        40.94458         2.94251
O         18.66380        27.01403         1.22261
H         18.24406        27.77886         1.68350
O         23.83527        56.96780        -0.25698
H         23.22944        56.30582        -0.66487
O         25.98875        23.53330        -3.58182
H         25.49455        23.94431        -4.33502
O         24.76621        43.55432         3.34869
H         25.17398        42.69015         3.61125
O         23.97898        33.91656         0.14537
H         23.84836        32.95382         0.43103
O         28.47246        37.97797        -1.97661
H         27.65914        37.81862        -2.51066
O         18.33191        19.82541         0.51231
H         18.04318        20.63740         0.98176
O         22.85217        45.82520        -0.02165
H         23.34272        46.65250        -0.34808
O         20.18785        28.72250        -3.29670
H         20.99472        28.68048        -3.85630
O         10.14368        31.50751        -2.67494
H         10.88559        30.89989        -2.92148
O         24.19434        25.15188        -4.13403
H         24.49134        26.02161        -4.48524
O         30.47298        33.03885        -3.56393
H         30.49333        33.93280        -3.96371
O         27.92025        49.67721         2.10520
H         28.02502        50.51475         2.60577
O         30.77406        31.76623        -0.15112
H         30.57061        30.86659         0.19233
O         14.02345        44.61536        -2.45534
H         14.01381        43.66625        -2.74243
O         16.21552        40.36556        -2.15278
H         17.02465        40.89732        -2.31130
O         26.88901        12.18074         0.39196
H         27.74048        12.31375        -0.07388
O         15.02794        35.36507         1.52537
H         14.32740        34.91353         2.04723
O         34.87786        40.14459         1.92229
H         34.97943        39.22157         2.24292
O         29.53872        37.27578         1.46833
H         28.80159        37.67895         1.98125
O         23.40873        13.58221        -1.03864
H         22.50738        13.42656        -1.40877
O         18.96822        38.55331         2.17568
H         19.76619        38.20005         2.62998
O          6.95988        34.20884         0.67583
H          6.84956        33.30572         1.04263
O         30.57696        24.09654        -3.75492
H         31.46877        23.75040        -4.01486
O         32.08114        42.65098         1.51423
H         32.39211        41.84155         1.97243
O         15.84952        24.72827        -2.72227
H         15.11673        24.25444        -3.16888
O         31.68074        43.54890        -2.02273
H         30.81232        43.11742        -2.19542
O         33.26631        23.84269        -3.61289
H         33.74830        24.48576        -4.18884
O         33.26868        46.19191        -1.97456
H         32.69756        45.56108        -2.46669
O         13.89307        41.73534        -2.62264
H         14.72069        41.19776        -2.74473
O         18.16676        53.91746         4.63439
H         19.04258        53.51259         4.84472
O         15.28407        32.98194        -2.41129
H         16.07084        32.70644        -2.94118
O         14.23311        16.11887        -2.41918
H         15.00941        16.49722        -2.90124
O         16.54895        17.59995        -2.95200
H         17.42638        17.52437        -3.40361
O         23.83354        50.12717         3.35171
H         23.37681        49.55088         4.00224
O         25.65835        24.09475        -0.03109
H         25.31331        23.49531         0.67070
O         25.74839        13.02474         3.75711
H         24.91420        12.81367         4.22833
O         35.54722        20.74831         0.00920
H         35.64796        20.40216        -0.90123
O         29.38676        29.18195        -0.38359
H         28.60851        29.62689         0.01692
O         20.48874        41.27283         3.06504
H         21.10981        40.59328         3.41852
O         22.44258        36.87597         1.33743
H         22.08554        37.29259         2.15501
O         20.77050        52.67790         4.26879
H         20.83845        51.72860         4.50932
O         14.52693        20.79681         0.96962
H         13.77826        21.36126         1.28831
H          5.10692        31.39210        -1.65251
H          5.05429        33.84292        -1.45581
H          7.40221        27.14293        -0.92240
H          6.27863        29.26717        -1.27985
H          6.38823        36.00180        -1.62053
H          7.70624        38.08930        -1.82287
H          9.79328        22.63486        -1.18444
H          8.60007        24.79816        -0.80265
H          8.95531        40.25083        -1.67144
H         10.17016        42.40413        -1.30174
H         12.23080        18.19428        -1.03436
H         11.04356        20.35612        -1.15320
H         11.43497        44.49655        -0.90354
H         12.84859        46.70434        -1.05543
H         14.58481        14.38722         0.59722
H         13.46781        16.11205        -0.49898
H         13.89148        48.76528        -0.07628
H         14.93317        50.80811         1.05561
H         17.24734        11.17691         3.69366
H         15.87053        12.50923         2.01130
H         16.00551        52.66315         2.20619
H         17.19413        54.66384         2.96202
H         19.72631         7.67384         6.12762
H         18.40939         9.46362         4.85928
H         18.40611        56.83754         3.13756
H         19.64730        58.99084         3.14491
H         22.91809         4.81088         7.93507
H         20.79989         5.84682         7.12158
H         23.10495        62.31303         3.09287
H         20.93990        61.10887         3.28021
H         25.10296         5.66770         7.14866
H         26.33521         7.44023         6.24450
H         26.36972        58.96914         2.05619
H         25.18485        61.09885         2.45920
H         27.90007         9.16132         4.76157
H         29.05674        10.71512         3.53472
H         28.73769        54.82793         0.81379
H         27.53720        56.90697         1.40618
H         30.36148        12.62121         2.56316
H         31.63122        14.54675         1.69987
H         31.25307        50.67392         0.21646
H         29.94723        52.77387         0.28441
H         32.86345        16.63181         0.98557
H         34.01537        18.79996         0.66581
H         33.84349        46.50873        -0.01137
H         32.54383        48.59014        -0.20588
H         34.19978        21.78521         1.15753
H         36.43855        22.94541        -0.35118
H         36.48726        42.20692         0.49927
H         35.18888        44.46718         0.02855
H         37.70156        24.98421        -0.78671
H         38.86975        26.98914        -0.72733
H         38.78382        37.75542         1.26775
H         37.62249        39.93625         1.06356
H         39.97921        28.91558        -0.10736
H         41.08084        30.88288         0.95399
H         41.05472        33.28414         1.54338
H         39.91932        35.50267         1.44915
