         470
 CSIRO Nanostructure Databank - Neutral Graphene Oxide Data Set
C         37.51654        49.79385         0.12808
C         36.36161        50.22837        -0.49490
C         37.52432        52.17996        -1.31943
C         36.36859        51.42110        -1.24335
C         40.05210        48.71245         1.12517
C         39.96138        49.99757         0.56562
C         38.73126        50.52999         0.04188
C         39.87055        52.65313        -0.62151
C         38.71799        51.77686        -0.67194
C         39.85736        53.96897        -1.16545
C         42.51860        48.64104         1.11869
C         41.25887        48.06378         1.39815
C         42.52838        50.06165         0.64156
C         41.21495        50.76990         0.35236
C         41.95032        53.22843         0.46113
C         41.02309        52.24535         0.11317
C         41.99789        54.52845        -0.13521
C         40.91225        54.84743        -0.99905
C         45.02887        45.85001         1.42753
C         43.82578        46.52351         1.45228
C         44.99579        48.55105         0.62849
C         43.73160        47.91899         1.16867
C         45.00703        50.04226         0.77196
C         43.83867        50.75792         0.81461
C         45.01642        52.86936         0.35141
C         43.93684        52.19863         0.87288
C         45.11596        54.30690         0.33144
C         43.15524        55.36833         0.01935
C         44.80374        57.08193        -0.72303
C         43.51965        56.51569        -0.70727
C         47.65422        44.44318         1.58256
C         47.57722        45.89337         1.58226
C         46.29430        46.55158         1.33202
C         47.49639        48.75940         1.40168
C         46.27496        47.91173         1.11549
C         47.47280        50.06816         0.67417
C         46.27818        50.71250         0.55895
C         47.43068        52.77826        -0.40398
C         46.18766        52.06237        -0.04085
C         47.34565        54.25066        -0.69975
C         46.14063        55.00746        -0.26377
C         47.28297        57.16201        -0.69081
C         46.07127        56.44741        -0.50339
C         47.33591        58.59725        -0.66333
C         50.07852        44.47021         2.07012
C         48.82684        43.77756         1.68365
C         49.97904        45.99732         2.27194
C         48.75933        46.63202         1.65589
C         50.03345        48.71933         1.18747
C         48.81653        48.03083         1.34931
C         50.02416        50.08516         0.66683
C         48.73497        50.65348         0.08749
C         49.95701        52.85939        -0.29713
C         48.69780        52.20169         0.19491
C         49.94890        54.19618        -1.03920
C         48.60754        54.96360        -1.04410
C         49.81133        57.13240        -0.49223
C         48.58851        56.49521        -1.12370
C         49.78766        58.61008        -0.28802
C         48.50534        59.29581        -0.53744
C         52.78933        41.82310         1.45734
C         51.57454        42.41965         1.41515
C         52.64774        44.62155         2.03282
C         51.41293        43.79287         1.92006
C         52.45903        45.95057         2.30869
C         51.27066        46.72605         1.95467
C         52.58068        48.82540         1.30036
C         51.30198        48.03709         1.49952
C         52.49164        50.22618         0.75024
C         51.17003        50.82912         0.45867
C         52.39645        52.93431        -0.26855
C         51.14936        52.20885        -0.06055
C         52.37620        54.35239        -0.50296
C         51.14175        55.04034        -0.64431
C         52.32440        57.18638        -0.70991
C         51.11743        56.43527        -0.65560
C         52.21793        58.66688        -1.05092
C         51.07640        59.33897        -0.30436
C         52.32930        61.39976         0.14103
C         51.16462        60.64332         0.18349
C         55.19767        40.33349         1.78888
C         55.21488        41.76804         1.76320
C         54.01966        42.49797         1.82751
C         55.35682        44.72033         1.80547
C         53.98861        43.94910         2.10110
C         55.35348        46.12647         1.34604
C         54.27816        47.01476         1.73259
C         54.90267        48.71675         0.14641
C         53.88569        48.12078         1.03699
C         54.87920        50.18630         0.02916
C         53.69740        50.85841         0.13208
C         54.82421        52.97519        -0.53523
C         53.63910        52.27858        -0.20264
C         54.84509        54.38768        -0.58435
C         53.58677        55.09832        -0.53178
C         54.83106        57.23288        -0.89869
C         53.54548        56.50856        -0.70529
C         54.85226        58.72457        -0.99546
C         53.54010        59.46361        -0.98802
C         54.86061        61.54421        -0.21165
C         53.55348        60.87527        -0.47239
C         54.89428        62.90897         0.03648
C         57.46825        40.19451         0.90308
C         56.30267        39.58727         1.47342
C         57.56254        41.57910         0.81999
C         56.53096        42.40510         1.51129
C         57.55352        44.51341         0.46087
C         56.57154        43.92321         1.40243
C         57.49833        45.85589         0.10874
C         56.33659        46.61779         0.50548
C         57.45166        48.70003        -0.32488
C         56.19221        47.97571        -0.05140
C         57.45724        50.16118        -0.19717
C         56.17705        50.96999         0.06458
C         57.31717        53.01015        -0.90165
C         56.06212        52.18703        -0.86979
C         57.31291        54.40504        -0.86906
C         56.07434        55.09018        -0.65900
C         57.34492        57.27840        -0.67008
C         56.06646        56.55401        -0.34378
C         57.32742        58.70006        -0.55838
C         56.10334        59.42568        -0.59394
C         57.33901        61.51715        -0.16129
C         56.09284        60.81800        -0.32619
C         57.33455        62.93667         0.05274
C         56.11275        63.59859         0.16006
C         59.91178        37.32749         0.61709
C         58.75112        37.98850         0.83672
C         59.76682        40.04998        -0.26654
C         58.53924        39.34982         0.32970
C         59.81047        41.52706        -0.26899
C         58.69327        42.22387         0.19748
C         59.77481        44.34617        -0.81399
C         58.57067        43.65165        -0.14258
C         59.76446        45.81391        -0.84483
C         58.61698        46.53019        -0.55056
C         59.79391        48.70722        -1.09553
C         58.60244        47.99783        -0.65910
C         59.82301        50.08762        -1.22286
C         58.66843        50.86785        -0.75163
C         59.78654        52.98038        -1.63915
C         58.53018        52.25937        -1.25498
C         59.74596        54.47976        -1.54776
C         58.53555        55.15782        -1.06886
C         59.82402        57.26952        -0.74079
C         58.55678        56.56823        -0.87401
C         59.81982        58.65473        -0.33739
C         58.56658        59.40085        -0.36967
C         59.89779        61.48999        -0.15299
C         58.55857        60.79348        -0.21915
C         59.82249        62.95209         0.23223
C         58.60166        63.65958         0.19270
C         59.83907        65.75106         0.43069
C         58.63859        65.06643         0.32026
C         62.41101        35.86862         0.54285
C         62.33368        37.21542        -0.04556
C         61.06681        37.94360        -0.01013
C         62.18929        39.98303        -0.91841
C         61.01823        39.28324        -0.36380
C         62.24052        41.46137        -0.89489
C         61.02136        42.21040        -0.70044
C         62.27051        44.30803        -1.20340
C         61.04616        43.60332        -0.88392
C         62.24533        45.69647        -1.40788
C         60.97428        46.44802        -1.39813
C         62.27303        48.67351        -1.60289
C         60.98349        47.94844        -1.54279
C         62.26753        50.05836        -1.60110
C         61.04174        50.82276        -1.52512
C         62.31410        52.96754        -1.48906
C         61.06103        52.23081        -1.55769
C         62.31993        54.40957        -1.25890
C         61.08215        55.20681        -1.34682
C         62.26337        57.17414        -0.34204
C         61.04429        56.56996        -0.78604
C         62.24463        58.55775         0.11734
C         60.99642        59.26910         0.10519
C         62.17857        61.39396         0.95152
C         60.85470        60.65534         0.72707
C         62.26384        62.88292         0.76699
C         61.02872        63.64306         0.44746
C         62.35566        65.74066         0.53232
C         61.06388        65.05484         0.50868
C         62.44052        67.14129         0.55265
C         64.79827        36.20038         0.86720
C         63.56340        35.39317         1.05394
C         64.76726        36.97752        -0.43228
C         63.49441        37.81717        -0.47560
C         64.74610        39.98663        -1.00558
C         63.49849        39.19295        -1.01878
C         64.71065        41.36334        -1.05534
C         63.46527        42.11980        -1.07981
C         64.74465        44.21562        -1.49978
C         63.51586        43.55674        -1.25808
C         64.73660        45.61719        -1.97352
C         63.43572        46.42740        -1.88239
C         64.71882        48.58348        -1.58811
C         63.50627        47.91651        -1.72454
C         64.77385        50.02963        -1.44539
C         63.54765        50.79660        -1.89615
C         64.78473        52.94281        -1.37425
C         63.49997        52.24557        -1.47080
C         64.78820        54.41309        -1.06920
C         63.48879        55.09114        -0.91389
C         64.71456        57.00114         0.12765
C         63.46257        56.43158        -0.40535
C         64.71077        58.45680         0.55766
C         63.43879        59.19903         0.48428
C         64.75682        61.37102         0.90975
C         63.45191        60.59791         0.93984
C         64.78199        62.83899         0.71026
C         63.57007        63.56886         0.58474
C         64.82544        65.68160         0.18648
C         63.55961        64.97308         0.44097
C         64.86574        67.15052         0.26038
C         63.66336        67.82691         0.45577
C         67.33537        33.88499         2.39172
C         66.19948        34.65344         2.34363
C         67.37349        36.24239         0.76479
C         66.14224        35.81443         1.46064
C         67.33425        37.21591        -0.22051
C         66.04227        37.75546        -0.69932
C         67.31361        39.91580        -0.99548
C         66.01999        39.23313        -1.02584
C         67.30161        41.37382        -0.85205
C         65.97306        42.13143        -0.88522
C         67.24751        44.20052        -1.38942
C         66.00379        43.55536        -1.27238
C         67.31348        45.61712        -1.79337
C         66.03038        46.38119        -1.98655
C         67.22301        48.47594        -1.07744
C         66.01343        47.86505        -1.71719
C         67.16492        49.94279        -0.72446
C         65.93040        50.68027        -1.08214
C         67.22451        52.85047        -0.53677
C         65.95210        52.14660        -0.88718
C         67.34351        54.34629        -0.87500
C         66.03515        55.06416        -0.59930
C         67.30345        57.15803        -0.22050
C         66.01640        56.35356        -0.18744
C         67.22046        58.53242         0.41132
C         66.00590        59.18283         0.52383
C         67.31882        61.39913         0.72711
C         65.99527        60.64634         0.51453
C         67.26024        62.83003         1.07703
C         66.04402        63.48832         0.75275
C         67.42658        65.60561         0.63027
C         66.13348        64.89581         0.36644
C         67.40906        67.08933         0.41772
C         66.13394        67.82445         0.15109
C         67.52034        69.82249        -0.19644
C         66.24946        69.17059        -0.14438
C         69.71834        32.20670         2.55795
C         69.68829        33.39544         1.77548
C         68.54397        34.26072         1.75136
C         69.74788        35.81063         0.15696
C         68.69460        35.68063         1.23603
C         69.71480        36.93277        -0.72082
C         68.53817        37.79533        -0.76931
C         69.72147        39.95001        -1.46251
C         68.50485        39.18329        -1.15510
C         69.75053        41.37448        -1.30062
C         68.54004        42.10976        -1.11099
C         69.76215        44.22596        -1.19247
C         68.50500        43.50737        -1.23590
C         69.79024        45.63892        -1.09301
C         68.59834        46.39546        -1.50451
C         69.69412        48.49046        -0.70215
C         68.53774        47.82326        -1.17073
C         69.66898        49.89922        -0.39271
C         68.44767        50.66425        -0.51595
C         69.60939        52.73153         0.27594
C         68.46476        52.04317        -0.41101
C         69.76305        54.19859        -0.08326
C         68.52377        54.99928        -0.18525
C         69.70878        56.97999         0.65215
C         68.52157        56.32976         0.12803
C         69.58034        58.35140         1.18313
C         68.43773        59.21029         0.79090
C         69.60745        61.25172         1.67246
C         68.48582        60.58038         1.04156
C         69.52741        62.64316         2.02062
C         68.42575        63.52250         1.55815
C         69.58659        65.81488         1.86156
C         68.47804        64.94526         1.46724
C         69.71147        67.16779         1.40307
C         68.46195        67.94138         1.07812
C         69.96173        69.87478         0.32472
C         68.65478        69.24114         0.32554
C         70.15974        71.12866        -0.29652
C         72.01457        31.79162         1.92848
C         70.85844        31.42388         2.63484
C         72.00206        32.92796         1.12602
C         70.85152        33.73264         1.01560
C         71.79584        35.00083        -0.89931
C         70.80600        34.87195         0.09906
C         71.77962        36.07800        -1.77226
C         70.77645        37.04825        -1.65451
C         72.07225        40.06779        -2.18953
C         70.86576        39.36447        -2.02132
C         72.15036        41.39986        -1.81272
C         70.98247        42.08612        -1.41323
C         72.19020        44.22016        -0.91337
C         70.98840        43.50895        -1.16114
C         72.18225        45.57967        -0.68031
C         70.98112        46.33489        -0.79597
C         72.12616        48.48488        -0.31516
C         70.94443        47.77218        -0.61740
C         72.10724        49.83834        -0.05252
C         70.88927        50.57849        -0.05427
C         72.04484        52.65159         0.76521
C         70.90267        51.96760         0.25173
C         72.07256        54.01136         0.95285
C         71.01940        54.88107         0.39826
C         72.10515        57.01696         1.19914
C         70.91893        56.31011         0.77888
C         72.08403        58.32146         1.58122
C         70.81096        59.03258         1.75120
C         71.83743        61.08796         2.68444
C         70.77459        60.50177         1.98453
C         71.69848        62.37795         3.18469
C         70.54373        63.10494         2.88202
C         71.77936        66.12094         2.96831
C         70.60344        65.39843         2.75592
C         71.97179        67.32697         2.30303
C         70.91351        67.89660         1.56354
C         72.31396        69.88046         0.94759
C         71.06375        69.23185         0.95733
C         72.48579        71.12090         0.33788
C         71.40382        71.74773        -0.28981
O         63.93232        45.87573        -3.15245
O         58.67268        43.80347        -1.60271
O         44.08437        54.99188         1.00443
O         62.65386        39.40187        -2.19159
O         65.58195        65.13765        -0.95463
O         65.30378        36.92625         1.99604
O         64.23730        60.83651         2.16488
O         42.87994        52.89597         1.46019
O         67.94262        66.22622        -0.61925
O         70.83349        38.07554        -2.57997
O         66.72610        61.19339        -0.61051
O         65.01804        53.90056        -2.46550
O         60.42032        55.13195        -2.66450
O         58.51862        50.68553         0.70298
O         55.17329        48.03798        -1.14093
O         69.84327        58.36380         2.63751
O         50.68683        43.81538         3.24577
O         66.17548        47.34157        -3.06917
O         68.23728        45.93385        -2.87494
O         58.89570        52.41339        -2.67382
O         60.72180        47.10036        -2.71393
O         42.03429        50.17988        -0.74807
O         66.25174        52.53991         0.52095
O         49.64475        57.62657         0.86723
O         62.11404        62.26140         2.12227
O         66.92352        48.91095         0.30785
O         64.65536        57.36511         1.55448
O         58.69355        39.49939        -1.11393
O         66.04938        38.17906        -2.09259
O         46.70090        52.04778        -1.44141
O         54.89364        44.42203         3.13586
O         55.01701        57.86612        -2.19138
O         53.47162        60.56575        -1.94896
O         57.16329        43.23226         2.55423
O         70.78269        54.56980        -1.04189
O         70.37745        64.30261         3.58964
O         47.72756        54.46757        -2.11599
O         52.70556        49.97891         2.20204
O         53.53023        46.66067         2.85099
O         66.62510        41.83058         0.39550
O         69.20090        52.79337         1.69925
H         68.80421        51.92845         1.93953
O         55.91085        56.66070         1.12146
H         56.65163        56.17337         1.54050
O         56.23223        51.45929         1.42231
H         57.17393        51.42580         1.71353
O         51.79038        58.67961        -2.44484
H         52.15003        59.50948        -2.83856
O         47.35212        49.11888         2.83255
H         47.58990        48.32497         3.36027
O         50.21630        53.84530        -2.42839
H         49.34535        53.63481        -2.83918
O         48.75789        50.28115        -1.31234
H         47.93939        50.65351        -1.72582
O         67.62698        54.47733        -2.29636
H         66.78754        54.25759        -2.77721
O         55.89500        51.62362        -2.20568
H         55.99452        52.34482        -2.86270
O         67.47216        57.46919        -1.64927
H         67.67233        56.62002        -2.11226
O         64.67263        35.99160        -1.48941
H         64.81505        36.47254        -2.33566
O         44.98077        48.31117        -0.82829
H         44.79730        47.35693        -0.96232
O         49.77457        46.19967         3.70654
H         50.27162        45.47682         4.15958
O         60.24474        60.45557         2.01673
H         60.63861        61.12006         2.62912
O         67.91021        68.30996         2.39005
H         68.55321        68.90755         2.82713
O         48.58812        52.55419         1.60725
H         49.36343        52.17867         2.07809
O         63.66214        50.85171        -3.36005
H         62.83626        51.24505        -3.71468
O         48.69955        56.82730        -2.53422
H         48.13932        56.18142        -3.02243
O         69.13535        36.50345         2.38151
H         70.00062        36.15218         2.67998
O         60.48957        61.46279        -1.48702
H         59.85836        61.87869        -2.11113
H         37.48663        48.85113         0.69028
H         35.43964        49.63563        -0.41771
H         37.50233        53.11608        -1.89329
H         35.45521        51.75523        -1.75406
H         39.13116        48.14155         1.30839
H         39.00292        54.29687        -1.77180
H         41.21240        47.03467         1.78109
H         40.88446        55.82912        -1.49295
H         45.02676        44.77071         1.62999
H         42.91357        45.95614         1.68758
H         44.85273        58.08363        -1.17857
H         42.73958        57.03595        -1.28516
H         46.73985        43.87108         1.37408
H         46.39406        59.16658        -0.69476
H         48.84951        42.68326         1.58568
H         48.48780        60.39549        -0.55000
H         52.86681        40.78230         1.11287
H         50.69320        41.85018         1.08997
H         52.34687        62.38360         0.62758
H         50.27754        61.08179         0.66591
H         54.29490        39.81699         2.14124
H         53.95944        63.48038         0.11246
H         56.24933        38.49398         1.55699
H         56.07571        64.68021         0.34226
H         60.00368        36.30803         1.01157
H         57.96489        37.50846         1.43575
H         59.81845        66.84816         0.46949
H         57.70891        65.64923         0.28752
H         61.49892        35.26372         0.62985
H         61.52691        67.74028         0.66216
H         63.59863        34.42283         1.56839
H         63.65822        68.92398         0.52022
H         67.29891        32.94976         2.96757
H         65.31540        34.39153         2.93869
H         67.55799        70.82446        -0.64641
H         65.35763        69.75192        -0.41908
H         68.83995        31.90972         3.14547
H         69.32024        71.62990        -0.79667
H         72.92482        31.18132         2.00308
H         70.86162        30.52103         3.26100
H         72.91747        33.19523         0.58103
H         72.58535        34.24558        -1.00291
H         72.54443        36.18563        -2.55176
H         72.94006        39.55199        -2.62012
H         73.09972        41.93992        -1.92436
H         73.14247        43.67532        -0.85647
H         73.13155        46.07732        -0.44398
H         73.09032        47.96134        -0.28325
H         73.05467        50.34803         0.16513
H         72.92511        52.07011         1.07707
H         72.93542        54.46791         1.45862
H         73.07346        56.50448         1.10693
H         73.03007        58.85890         1.73737
H         72.72994        60.49945         2.93439
H         72.45538        62.81372         3.84866
H         72.53436        65.73452         3.66467
H         72.91222        67.87067         2.45545
H         73.18820        69.40784         1.41386
H         73.47419        71.60046         0.34439
H         71.53608        72.72310        -0.77760
