         349
 CSIRO Nanostructure Databank - Neutral Graphene Oxide Data Set
C          1.20015         3.26885        -0.81607
C          0.05873         3.91349        -0.40336
C          1.08749         6.13007        -0.56265
C          0.01322         5.32851        -0.22558
C          1.13433         7.56033        -0.29223
C         -0.00918         8.30800         0.00510
C          1.24363        10.27806         0.76640
C          0.04322         9.65264         0.43933
C          1.33451        11.59267         1.37996
C          0.18411        12.21787         1.82639
C          1.30905        14.30569         2.34509
C          0.18601        13.52529         2.38965
C          1.38008        16.67501         2.37835
C          0.20175        17.43513         2.41306
C          1.30498        19.16264         1.12912
C          0.15146        18.65318         1.75754
C          1.26430        20.52861         0.58995
C          0.04227        21.17735         0.32354
C          1.19588        23.29152        -0.00512
C          0.02079        22.52250        -0.02372
C          1.12439        24.76235        -0.19831
C          0.08514        25.36358        -1.05722
C          1.40849        27.41891        -1.33853
C          0.21635        26.62068        -1.54560
C          1.51614        28.71085        -1.89728
C          3.60602         3.39088        -1.36424
C          2.38875         4.00797        -1.13252
C          3.57755         6.27899        -1.22686
C          2.27565         5.48200        -1.15364
C          3.59956         7.63380        -0.63933
C          2.41314         8.22803        -0.22249
C          3.79085        10.27105         0.48400
C          2.47212         9.51975         0.49458
C          3.95293        11.69208         0.98740
C          2.64909        12.29738         1.55791
C          3.72788        14.68724         1.34717
C          2.61397        13.79085         1.87475
C          3.76212        16.23681         1.43525
C          2.55700        17.11589         1.75463
C          3.74311        19.03982         0.63688
C          2.50527        18.40886         1.15633
C          3.74245        20.54506         0.40114
C          2.45972        21.26528         0.45155
C          3.68431        23.43265         0.37414
C          2.43987        22.66478         0.25164
C          3.65355        24.80898         0.27399
C          2.39805        25.54418        -0.00431
C          3.69688        27.61375        -0.48888
C          2.51063        26.88295        -0.62351
C          3.80047        28.90046        -1.07533
C          2.68985        29.43686        -1.76914
C          6.08779         3.45173        -1.49147
C          4.84597         4.12150        -1.43787
C          6.05255         6.26936        -1.27261
C          4.84013         5.53642        -1.29852
C          6.02773         7.68228        -1.09720
C          4.85898         8.34394        -0.65689
C          6.04988        10.53907        -0.49932
C          4.89691         9.72473        -0.29567
C          6.05184        11.92102        -0.30849
C          4.70795        12.62186         0.01535
C          6.18236        14.33969         0.94276
C          4.91869        13.89550         0.83196
C          6.34007        16.48090         1.57689
C          5.04239        17.05163         1.40531
C          6.21035        19.19524         0.91009
C          5.02898        18.41514         1.00422
C          6.21195        20.60907         0.71323
C          4.98759        21.31618         0.56521
C          6.17030        23.44929         0.78211
C          4.95004        22.72834         0.60219
C          6.11053        24.91205         1.01711
C          4.81990        25.62440         0.67951
C          6.16038        27.63750        -0.10408
C          4.81525        27.13846         0.42375
C          6.20260        29.05866        -0.55724
C          5.03604        29.64081        -1.00232
C          8.56384         3.47568        -1.34502
C          7.31590         4.15754        -1.42371
C          8.53723         6.32210        -1.32668
C          7.30324         5.58604        -1.37264
C          8.54165         7.73882        -1.40721
C          7.22603         8.49614        -1.51648
C          8.49744        10.63875        -1.12430
C          7.34505         9.77591        -0.65567
C          8.49029        12.06049        -0.73349
C          7.30075        12.66062        -0.39794
C          8.48757        14.99539        -0.11465
C          7.17316        14.15900        -0.19403
C          8.62902        16.35765         0.53820
C          7.51058        17.09367         1.18606
C          8.74853        19.22574         0.72227
C          7.52939        18.57875         1.30749
C          8.70545        20.67032         0.65126
C          7.45331        21.35353         0.71676
C          8.66803        23.55084         0.78149
C          7.41801        22.78377         0.75961
C          8.67391        24.92885         0.95932
C          7.40210        25.72457         1.21495
C          8.64547        27.85376         0.46829
C          7.42132        26.98730         0.34607
C          8.64618        29.18995        -0.18032
C          7.45590        29.74591        -0.61807
C         10.99345         3.47690        -0.96904
C          9.76720         4.17047        -1.14703
C         10.96114         6.34392        -0.95597
C          9.76435         5.62167        -1.15875
C         10.95695         7.74719        -1.01137
C          9.75754         8.43824        -1.31477
C         11.09489        10.67155        -1.51283
C          9.76997         9.92427        -1.45235
C         11.03744        12.10082        -0.98667
C          9.74877        12.82341        -0.92450
C         11.05724        14.97838        -0.40447
C          9.75333        14.29092        -0.56849
C         11.09340        16.32911        -0.04111
C          9.99711        16.99036         0.78791
C         11.17064        19.23968         0.41441
C          9.90377        18.50240         0.55017
C         11.14319        20.70692         0.29111
C          9.91096        21.40377         0.48586
C         11.12170        23.51388         0.30393
C          9.91155        22.83269         0.52813
C         11.19499        24.96396         0.55564
C          9.94196        25.69509         0.99267
C         11.26846        27.97088         0.70307
C          9.93967        27.20248         0.84148
C         11.12070        29.30490        -0.02083
C          9.88982        29.87424        -0.31847
C         13.39167         3.42513        -0.52779
C         12.21298         4.13455        -0.69815
C         13.47810         6.31566        -0.95945
C         12.19655         5.63977        -0.43344
C         13.48839         7.81003        -0.86002
C         12.16396         8.50016        -0.47531
C         13.55758        10.61966        -0.97313
C         12.22869         9.93981        -0.87329
C         13.49064        12.11007        -0.74870
C         12.24378        12.81356        -0.83948
C         13.53094        14.91287        -0.70537
C         12.26044        14.25300        -0.68571
C         13.57534        16.37025        -0.86137
C         12.24394        17.10674        -0.45353
C         13.61364        19.22702        -0.46484
C         12.41843        18.50699        -0.01386
C         13.54732        20.72322        -0.59069
C         12.31703        21.38930        -0.00673
C         13.56317        23.50539        -0.20547
C         12.32187        22.81219        -0.01147
C         13.55150        24.94448        -0.46245
C         12.29260        25.72807        -0.09979
C         13.54370        27.84347        -0.29869
C         12.41313        27.18545         0.08890
C         13.55330        29.30413        -0.37580
C         12.33151        29.98513        -0.32599
C         15.86801         3.43453         0.10215
C         14.71328         4.07801        -0.55105
C         16.01204         6.32782        -0.46941
C         14.77084         5.55932        -0.84397
C         15.92284         7.80110        -0.22962
C         14.73991         8.49910        -0.49800
C         15.97030        10.70109        -0.24893
C         14.65742         9.95776        -0.13320
C         15.93238        12.07193        -0.19519
C         14.68251        12.78102        -0.47590
C         16.09960        14.81517        -0.67209
C         14.72024        14.19926        -0.56217
C         16.08727        16.34790        -0.77763
C         14.82376        17.10267        -0.73669
C         16.09288        19.24707        -0.55939
C         14.83048        18.52696        -0.65770
C         16.07836        20.75485        -0.68396
C         14.83337        21.34802        -0.01631
C         16.01956        23.56554        -0.15627
C         14.80584        22.85240        -0.15417
C         16.01578        25.00236        -0.30215
C         14.81381        25.67345        -0.50369
C         16.04492        27.85967        -0.62427
C         14.74990        27.12555        -0.88425
C         16.00210        29.27386        -0.66822
C         14.78399        29.96129        -0.63434
C         18.13329         3.46228         1.07825
C         17.01402         4.10953         0.41747
C         18.19342         6.29961         0.88880
C         17.16462         5.55944         0.13209
C         18.11046         7.75898         0.97544
C         17.04529         8.49259         0.28486
C         18.32032        10.69483         0.73385
C         17.25479         9.94905        -0.04896
C         18.28787        12.10601         0.76907
C         16.94458        12.80082         0.67920
C         18.36255        14.98962         0.48431
C         16.97116        14.36464         0.53086
C         18.47903        16.36345         0.17442
C         17.33794        17.09842        -0.42035
C         18.52310        19.26299        -0.09996
C         17.29068        18.57774        -0.30849
C         18.61448        20.73608        -0.44485
C         17.32360        21.46776        -0.21543
C         18.49022        23.62818         0.09348
C         17.28398        22.85005        -0.06260
C         18.47713        25.01397        -0.03996
C         17.26743        25.73607        -0.28532
C         18.52405        27.88404        -0.47937
C         17.25766        27.15127        -0.44863
C         18.53506        29.27934        -0.71139
C         17.26727        30.09470        -0.71039
C         19.21326         4.16608         1.51520
C         20.44320         6.34214         1.84674
C         19.25442         5.61680         1.45830
C         20.54002         7.69489         1.72509
C         19.35613         8.52562         1.47277
C         20.55610        10.72452         1.67724
C         19.44485         9.99576         1.22350
C         20.57703        12.11171         1.58297
C         19.44346        12.82810         1.15102
C         20.68360        15.00826         1.18682
C         19.48830        14.28851         0.97257
C         20.75874        16.37761         0.97653
C         19.65940        17.08984         0.45599
C         20.87337        19.27485         0.52506
C         19.69885        18.54903         0.26304
C         20.87570        20.69293         0.56814
C         19.78927        21.43224         0.17676
C         20.89434        23.60610        -0.43940
C         19.80798        22.92931         0.38462
C         20.88996        24.93638        -0.57083
C         19.79889        25.75288         0.09060
C         20.95920        27.90206        -0.49125
C         19.75588        27.19700        -0.36038
C         20.95986        29.26818        -0.77959
C         19.75003        29.95494        -0.87653
O          2.71381         6.11231        -2.40330
O          6.92055        26.74201        -1.00039
O          1.31196        15.47496         3.09292
O          8.36826        16.23101        -0.91330
O         13.39426         7.12071        -2.16014
O          6.48302        15.16790         2.01844
O         16.25375        12.48003         1.89110
O          3.73218        19.57295        -0.71994
O          3.41309         9.42444         1.63169
O         12.63867        16.91652        -1.83515
O         10.95635        25.27141         1.96737
O         18.24743         8.23649         2.37781
O          2.96311        12.78631         2.89947
O          5.15455        25.27871         2.07536
O         14.99426         4.62068        -1.92376
O          1.38526        25.48145         1.06445
O          9.61287        13.86275        -1.97552
O          3.36233        15.52504         0.18862
O         12.15682        18.74174         1.43307
O         17.15564         5.95327        -1.29276
O          9.12848        27.87988         1.85653
O         17.02246        16.76950        -1.84563
O         12.19428         5.79726         0.97295
O         12.53191        25.33956        -1.48984
O          8.89509        10.42862        -2.53352
O         17.87599         9.80122        -1.39468
H         17.15741         9.61544        -2.03866
O         10.31668        16.78078         2.18381
H         11.06715        17.38468         2.40015
O         11.41381        10.80363        -2.95071
H         10.57614        11.08068        -3.39218
O          7.42982        26.15836         2.58806
H          7.31311        25.37403         3.16272
O         16.04687        21.04435        -2.11941
H         16.96460        20.88184        -2.45673
O          7.68299         9.31191         0.68275
H          7.34474         9.95554         1.34052
O         13.99505        10.41010        -2.35688
H         13.24015        10.65834        -2.94754
O         12.05063         8.43901         0.96848
H         12.06364         7.45183         1.21385
O          6.92442         8.80590        -2.89405
H          7.65728         9.37174        -3.24084
O         17.23553        30.98378        -1.83989
H         17.15052        30.44036        -2.65017
O         18.81855        20.77238        -1.93922
H         19.52246        20.12060        -2.15070
O          4.89288        11.55941         2.08306
H          4.47470        10.97031         2.74961
O         13.42590        21.01692        -2.00880
H         14.31291        20.89573        -2.42994
O         16.68497        14.26001        -1.86869
H         17.10398        15.01009        -2.35643
O         14.34500        10.05329         1.28117
H         14.85277        10.81451         1.66245
O          3.93863        12.82727        -1.16762
H          4.38315        13.53609        -1.68376
O         20.13186        23.11659         1.78778
H         20.23684        24.09237         1.93512
O         11.69752        28.29027         2.05304
H         10.87896        28.47085         2.57011
O         20.12964        25.81584         1.52562
H         19.43506        26.35046         1.96550
O          7.66175        18.88108         2.75991
H          7.06537        18.27153         3.24523
O         16.35501        14.93117         1.70287
H         16.13101        14.13013         2.26625
O         14.55220        27.14845        -2.34411
H         13.76368        26.58119        -2.52081
O          6.45231        14.61782        -1.37323
H          6.89013        15.45066        -1.67601
O         14.92970        21.00381         1.38106
H         14.10207        21.27448         1.83114
O          4.61393        27.80314         1.69195
H          4.88213        27.16741         2.39728
H          1.22614         2.17137        -0.87886
H         -0.83367         3.32625        -0.14562
H         -0.89434         5.77165         0.20825
H         -0.99966         7.84476        -0.10563
H         -0.91222        10.17338         0.59035
H         -0.77666        11.68793         1.78420
H         -0.72810        13.91654         2.85349
H         -0.67484        17.03886         2.94082
H         -0.77740        19.23690         1.77689
H         -0.90488        20.62353         0.36525
H         -0.94206        23.00409        -0.24218
H         -0.79846        24.76472        -1.32149
H         -0.58005        27.04858        -2.17279
H          0.66026        29.13507        -2.44161
H          3.65293         2.29134        -1.37805
H          2.77041        30.43882        -2.21449
H          6.10519         2.35285        -1.54270
H          5.05329        30.67270        -1.38438
H          8.57216         2.37536        -1.36141
H          7.46940        30.75787        -1.05136
H         11.00636         2.38641        -1.13049
H          9.87265        30.87856        -0.77104
H         13.36087         2.32587        -0.44957
H         12.29261        31.04512        -0.62114
H         15.77671         2.37071         0.37078
H         14.79453        31.05849        -0.71222
H         18.09830         2.36965         1.19905
H         17.28898        30.75756         0.20005
H         20.06119         3.64205         1.97950
H         21.33465         5.75467         2.11232
H         21.51787         8.18322         1.84145
H         21.42851        10.20192         2.09290
H         21.48520        12.63985         1.90169
H         21.57790        14.49558         1.56430
H         21.69715        16.89341         1.21873
H         21.79583        18.75205         0.80808
H         21.76077        21.20577         0.97154
H         21.68834        22.99290        -0.89187
H         21.67506        25.44805        -1.14700
H         21.91592        27.37811        -0.35946
H         21.91127        29.80465        -0.89701
H         19.73731        31.03582        -1.07382
