         404
 CSIRO Nanostructure Databank - Neutral Graphene Oxide Data Set
C          1.32197         1.98366        -0.88299
C          1.26185         3.36992        -0.71384
C          2.53744         1.31297        -0.81961
C          2.43052         4.12957        -0.47550
C          1.17929         6.29986        -0.36199
C          1.16452         7.67374        -0.23808
C          2.39422         5.56991        -0.32018
C          2.37019         8.41849        -0.11617
C          1.16507        10.61121        -0.02920
C          1.17447        11.99174        -0.10142
C          2.36404         9.86916        -0.11837
C          2.37201        12.70809        -0.35044
C          1.16927        14.91817        -0.27225
C          1.17973        16.30404        -0.24538
C          2.36492        14.17661        -0.42329
C          2.39664        17.01563        -0.29902
C          2.42332        18.44935        -0.18435
C          3.73746         2.03049        -0.57712
C          3.68245         3.45355        -0.40489
C          4.98135         1.36201        -0.50856
C          4.88584         4.18109        -0.12819
C          3.60786         6.28739        -0.10635
C          3.59657         7.72424        -0.05320
C          4.83468         5.58207         0.03310
C          4.84388         8.46222        -0.01129
C          3.58844        10.57629        -0.27154
C          3.57446        11.98595        -0.44366
C          4.84357         9.86556        -0.20580
C          4.83716        12.62243        -0.97499
C          3.57826        14.87810        -0.58644
C          3.61396        16.29422        -0.45624
C          4.82488        14.15012        -0.91626
C          4.86398        17.01273        -0.39300
C          3.60335        19.13429        -0.15641
C          4.86327        18.44057        -0.22435
C          6.18030         2.06264        -0.25632
C          6.14017         3.48178        -0.03912
C          7.42547         1.38494        -0.24230
C          7.35331         4.19684         0.19533
C          6.03072         6.31845         0.57095
C          6.06787         7.77572         0.19916
C          7.33610         5.60501         0.35206
C          7.29174         8.47088         0.23231
C          6.08695        10.59029        -0.20067
C          6.10660        11.98993        -0.42428
C          7.30989         9.88927         0.04537
C          7.32826        12.71004        -0.34081
C          6.12525        14.88779        -0.73709
C          6.09193        16.32516        -0.40839
C          7.36427        14.13353        -0.46448
C          7.31787        17.01362        -0.26497
C          6.07462        19.13202        -0.13314
C          7.31654        18.44789        -0.15953
C          8.63498         2.06718        -0.00986
C          8.60880         3.49679         0.23166
C          9.87006         1.38970        -0.03257
C          9.79767         4.18742         0.50855
C          8.53883         6.32967         0.47113
C          8.53340         7.76387         0.43936
C          9.78307         5.62433         0.61490
C          9.75478         8.47561         0.50416
C          8.54267        10.60050         0.10761
C          8.55679        12.01525        -0.05776
C          9.76807         9.89849         0.34962
C          9.78847        12.73101         0.02339
C          8.56131        14.85061        -0.28262
C          8.55198        16.29333        -0.25736
C          9.79998        14.14851        -0.10689
C          9.77642        16.99962        -0.20577
C          8.54754        19.13817        -0.12248
C          9.77519        18.45142        -0.18094
C         11.08967         2.04187         0.28340
C         11.05721         3.46880         0.60894
C         12.29974         1.34259         0.22190
C         12.22373         4.15120         0.90173
C         10.96857         6.34816         0.83060
C         10.98822         7.76733         0.72993
C         12.19680         5.61568         1.30527
C         12.21688         8.48763         0.79739
C         10.99677        10.61208         0.41910
C         11.02039        12.03189         0.26062
C         12.22320         9.90453         0.64417
C         12.24936        12.74960         0.34749
C         11.03281        14.86986        -0.09270
C         11.00085        16.28279        -0.22195
C         12.27619        14.16727         0.12872
C         12.24404        17.02977        -0.40514
C         10.99985        19.16284        -0.18702
C         12.23893        18.50124        -0.27247
C         13.52936         1.90048         0.75573
C         13.46911         3.40950         1.13509
C         14.84507         1.30910         0.46464
C         14.75986         4.16725         1.11102
C         13.45504         6.35968         0.95243
C         13.46795         7.74262         0.84354
C         14.67409         5.59965         0.68870
C         14.72760         8.45494         0.82871
C         13.43670        10.64610         0.75567
C         13.46857        12.04954         0.63751
C         14.66330         9.91037         1.10727
C         14.72176        12.78463         0.75418
C         13.50739        14.86648         0.20585
C         13.56463        16.28708        -0.16456
C         14.72508        14.21812         0.55180
C         14.74577        17.08059         0.19375
C         13.46200        19.17828        -0.26266
C         14.71113        18.51463        -0.04096
C         16.04153         1.99045         0.58922
C         16.06090         3.44534         0.90021
C         17.29905         1.35432         0.33870
C         17.26912         4.21852         0.50822
C         15.96576         6.35208         0.45955
C         15.95039         7.80092         0.70290
C         17.25138         5.62650         0.50465
C         17.22388         8.47724         0.79194
C         15.94576        10.67714         1.26120
C         15.93594        12.13023         0.97866
C         17.23142         9.90360         1.17934
C         17.19124        12.85344         0.95490
C         15.93175        14.97162         0.67894
C         15.90003        16.40969         0.59140
C         17.18939        14.31498         0.91527
C         17.12422        17.17535         0.88612
C         15.89264        19.25273        -0.02310
C         17.12230        18.69280         0.51634
C         18.50369         2.06399         0.22582
C         18.47287         3.52763         0.25996
C         19.74748         1.39117         0.07462
C         19.64865         4.27089         0.02124
C         18.44654         6.37226         0.37262
C         18.43097         7.82232         0.52426
C         19.65216         5.67461         0.13279
C         19.67740         8.57028         0.34623
C         18.49113        10.68195         0.97102
C         18.38744        12.15393         0.87891
C         19.68836         9.98323         0.46168
C         19.67322        12.84737         0.96967
C         18.39501        15.05077         1.01102
C         18.42582        16.48842         0.90184
C         19.67714        14.33587         1.16875
C         19.60799        17.25083         0.84396
C         18.41564        19.30731         0.24369
C         19.59248        18.65266         0.51096
C         20.95012         2.07778        -0.19718
C         20.84733         3.53591        -0.44238
C         22.21011         1.45572        -0.24948
C         22.09957         4.29164        -0.71751
C         20.92025         6.43923         0.06258
C         20.88205         7.91336        -0.01431
C         22.16997         5.73939        -0.35138
C         22.06020         8.63311        -0.37965
C         20.86264        10.70951         0.17065
C         20.82960        12.19631         0.27611
C         22.01625        10.06241        -0.30436
C         22.08392        12.99586         0.10408
C         20.96821        15.09006         1.02330
C         20.93686        16.59619         0.95013
C         22.16842        14.40043         0.53422
C         22.16308        17.27817         0.47667
C         20.87302        19.45965         0.43131
C         22.15176        18.66711         0.27110
C         23.43485         2.16868        -0.47232
C         23.38108         3.57300        -0.71159
C         24.71639         1.54995        -0.31186
C         24.53745         4.33632        -0.94552
C         23.33090         6.51477        -0.85414
C         23.24590         7.94214        -0.86987
C         24.49136         5.78079        -1.11797
C         24.41744         8.70751        -1.30580
C         23.19726        10.89031        -0.67014
C         23.32568        12.27165        -0.17310
C         24.46132        10.19448        -1.10046
C         24.54564        12.92795        -0.13944
C         23.35691        15.09364         0.34790
C         23.37613        16.54668         0.35717
C         24.58465        14.36888         0.09376
C         24.59522        17.23954         0.11382
C         23.36700        19.33455         0.03749
C         24.58516        18.64672        -0.00719
C         25.88862         2.29575        -0.47964
C         25.77602         3.64026        -0.95420
C         27.26941         1.97925        -0.03932
C         26.99724         4.37718        -1.10140
C         25.76318         6.44248        -1.60384
C         25.76886         7.96856        -1.49361
C         26.98688         5.74494        -1.07149
C         26.98340         8.69556        -1.12721
C         25.75173        10.87107        -0.85740
C         25.76616        12.18287        -0.40877
C         26.99154        10.10650        -0.94036
C         27.04762        12.82492        -0.05721
C         25.78944        15.07470         0.05499
C         25.84416        16.50444         0.02974
C         27.05357        14.33167         0.14111
C         27.08267        17.17718        -0.08352
C         25.86414        19.43944        -0.16243
C         27.13598        18.61443        -0.16705
C         28.14811         1.02916        -0.57560
C         28.32300         3.71016        -1.26578
C         29.57263         1.03268        -0.55027
C         29.40690         4.17767        -0.33897
C         28.14046         6.45649        -0.50990
C         28.11346         7.94284        -0.50762
C         29.38502         5.68472        -0.12442
C         29.43425         8.62789        -0.31244
C         28.22590        10.77410        -0.78799
C         28.31198        12.15747        -0.45147
C         29.48690        10.00403        -0.88811
C         29.52518        12.81889        -0.37238
C         28.31561        15.04711        -0.02726
C         28.33251        16.43544        -0.11652
C         29.55159        14.24184         0.04241
C         29.59262        17.15179        -0.19004
C         28.34373        19.27239        -0.25406
C         29.60817        18.57899        -0.24152
C         30.66226         1.97651        -0.35546
C         30.67182         3.42100        -0.25457
C         31.92546         1.34436        -0.32847
C         31.86703         4.15854        -0.01825
C         30.68860         6.37326        -0.06711
C         30.71660         7.85843        -0.13034
C         31.86920         5.64238         0.00086
C         32.00743         8.56043        -0.39258
C         30.80112        10.69138        -0.94828
C         30.78344        12.22051        -1.00014
C         32.03215         9.92617        -0.60428
C         32.07208        12.87443        -0.53582
C         30.85084        14.98622        -0.01482
C         30.82627        16.45937        -0.16311
C         32.07718        14.23303        -0.34205
C         32.04105        17.16004        -0.13459
C         30.83450        19.27086        -0.24027
C         32.07403        18.58545        -0.15917
C         33.13547         2.04386        -0.12924
C         33.09363         3.45588         0.07888
C         34.37423         1.34808        -0.12969
C         34.35922         4.14378         0.35303
C         33.12561         6.37510        -0.01177
C         33.21442         7.75968        -0.23405
C         34.37926         5.65239         0.29238
C         34.49782         8.43218        -0.17392
C         33.31161        10.66797        -0.69219
C         33.31760        12.14160        -0.49962
C         34.56810         9.88408        -0.41287
C         34.50801        12.79937        -0.17485
C         33.34675        15.00506        -0.51268
C         33.28865        16.39765         0.06955
C         34.57871        14.23392        -0.12572
C         34.59244        17.13638         0.15015
C         33.33765        19.26653        -0.14739
C         34.57085        18.59857        -0.06753
C         35.61908         2.01780        -0.00521
C         35.63489         3.43056         0.18071
C         36.85106         1.31129        -0.05505
C         36.86882         4.13121         0.29104
C         35.68182         6.27774        -0.15787
C         35.69597         7.76110         0.05310
C         36.91130         5.55817         0.32024
C         36.94774         8.43723         0.24877
C         35.77211        10.58293         0.05721
C         35.69680        12.02499         0.25237
C         36.95494         9.88270         0.28060
C         37.01968        12.76052         0.44868
C         35.77894        14.93811        -0.01269
C         35.84441        16.37178        -0.04813
C         37.04969        14.17991        -0.00847
C         37.05566        17.07257        -0.14844
C         35.81447        19.23798        -0.25962
C         37.04199        18.52175        -0.27874
C         38.07739         1.97819         0.10809
C         38.09211         3.39969         0.29472
C         39.32493         1.27898         0.07731
C         39.32203         4.09467         0.47094
C         38.12178         6.25392         0.52902
C         38.14529         7.71982         0.49867
C         39.32006         5.50281         0.69052
C         39.38070         8.43210         0.63721
C         38.21681        10.59115         0.41415
C         38.25483        11.97857         0.38102
C         39.44719         9.83422         0.49945
C         39.53410        12.70275         0.52254
C         38.34345        14.91538        -0.02328
C         38.32776        16.39439        -0.11054
C         39.57025        14.20536         0.46860
C         39.52363        17.07808        -0.23851
C         38.26230        19.18417        -0.51177
C         39.50017        18.49342        -0.54491
C         40.51825         1.95469         0.23264
C         40.54941         3.35719         0.43990
C         41.79188         4.05076         0.62536
C         40.58728         6.16075         1.04499
C         40.62119         7.70795         0.99470
C         41.82434         5.37917         0.92327
C         41.89350         8.40707         0.76002
C         40.71823        10.53082         0.43007
C         40.78134        11.93106         0.35121
C         41.92353         9.72598         0.45524
C         41.99034        12.68068         0.11609
C         40.88877        14.91843         0.29508
C         40.84377        16.40006        -0.08069
C         42.05326        14.04407         0.05890
C         42.00365        17.08995        -0.66458
C         40.69530        19.13122        -0.92833
C         41.90728        18.40599        -1.04279
O         28.60641         3.11510        -2.30452
O         21.19340        15.91214         2.22464
O         15.61508         3.86907         2.24838
O         34.37052         5.00192         1.58201
O         23.59079        10.83077        -2.09640
O         29.99487         8.50522         1.01400
O         13.06171        16.55310        -1.52371
O         21.21095         3.94569        -1.83088
O         24.99869         8.46954        -2.63636
O         40.53366         6.98809         2.26521
O         36.16860        12.47458         1.58368
O         33.89319        16.63460         1.36506
O         30.31551        14.51806         1.28747
O         13.39043         2.38985         2.14778
O         16.97330        18.20078         1.90038
O         29.02648         4.74850         0.94951
O         27.07261        13.38612         1.28857
O         21.91087         5.96384         1.07618
O         39.47126        13.56130         1.76587
O         15.16007         5.86603        -0.68390
O         21.07562        12.84143        -1.02291
O          5.53083        14.68249        -2.09383
O         18.10971        10.18955         2.31864
O         37.81568        14.30319        -1.26895
O         27.65469         7.22442         0.68589
O         41.10044        15.94652         1.31750
O         34.17739        10.24025        -1.81324
O         19.83774        13.41330         2.31289
O         30.18436        10.10074        -2.18169
O         15.16725        10.28942         2.44578
O          4.84304        12.25070        -2.39113
H          5.31442        12.98044        -2.86089
O         12.13176         5.60343         2.77672
H         11.38809         5.02090         3.03983
O         25.79764        20.23947        -1.35924
H         25.77817        19.63450        -2.12892
O          5.84185         6.30843         2.04839
H          5.80991         5.36817         2.32769
O         30.70565        12.60762        -2.40733
H         30.33762        11.82646        -2.88960
O         20.73088        20.41840        -0.62014
H         21.56803        20.91709        -0.70772
O         35.67168         6.09035        -1.62283
H         36.39368         6.63470        -2.00260
O         27.57421        -0.01894        -1.23668
H         28.26088        -0.54790        -1.68775
O         33.45070        15.24710        -1.96546
H         33.36164        14.38214        -2.42153
O         25.82418         6.13356        -3.03787
H         25.26381         6.80637        -3.49282
H          0.39612         1.42193        -1.06999
H          0.28337         3.86429        -0.77519
H          2.57976         0.22275        -0.95361
H          0.22493         5.77347        -0.49608
H          0.19991         8.19627        -0.28434
H          0.20624        10.09782         0.12185
H          0.22098        12.52566        -0.00011
H          0.20481        14.40119        -0.18792
H          0.23534        16.85770        -0.14369
H          1.46638        18.98548        -0.10410
H          5.01667         0.27347        -0.66360
H          3.61083        20.22939        -0.05630
H          7.44589         0.30099        -0.42911
H          6.06813        20.22810        -0.03901
H          9.88509         0.31191        -0.25226
H          8.54800        20.23718        -0.07457
H         12.32257         0.34398        -0.23973
H         10.98018        20.26069        -0.11811
H         14.86383         0.26423         0.11741
H         13.46184        20.27815        -0.29183
H         17.31393         0.25974         0.22435
H         15.89556        20.28950        -0.39095
H         19.76641         0.29458         0.16978
H         18.44457        20.32202        -0.17889
H         22.26713         0.37299        -0.05766
H         20.96231        20.02031         1.41722
H         24.76528         0.50705         0.03299
H         23.37813        20.42985        -0.07277
H         27.69305         2.70384         0.67517
H         25.92134        20.17208         0.68838
H         29.97053         0.05555        -0.88405
H         28.35012        20.37076        -0.31976
H         31.97804         0.25151        -0.44615
H         30.82870        20.37093        -0.26534
H         34.36737         0.25618        -0.26160
H         33.33858        20.36090        -0.26724
H         36.84026         0.22196        -0.20573
H         35.83853        20.32600        -0.42455
H         39.32127         0.19042        -0.07631
H         38.25579        20.26834        -0.70003
H         41.46948         1.40343         0.20552
H         42.72800         3.47595         0.57024
H         42.78270         5.86621         1.14826
H         42.83573         7.85499         0.87868
H         42.89648        10.21514         0.31179
H         42.92699        12.12487        -0.03451
H         43.03212        14.52312        -0.08787
H         42.97370        16.57488        -0.69250
H         40.67734        20.19878        -1.18857
H         42.79945        18.92565        -1.42072
