         349
 CSIRO Nanostructure Databank - Neutral Graphene Oxide Data Set
C          1.18603         3.43957        -0.79937
C         -0.02613         4.16086        -0.77981
C          1.11484         6.32266        -1.12845
C         -0.06705         5.54102        -0.80557
C          1.16087         7.79813        -0.94924
C         -0.04043         8.54099        -0.94457
C          1.17995        10.64259        -0.75725
C         -0.03651         9.91981        -0.83472
C          1.20186        12.07956        -0.57505
C          0.00802        12.83431        -0.40445
C          1.26778        14.89963        -0.03229
C          0.04124        14.18347        -0.12484
C          1.31173        16.31978         0.24895
C          0.11212        17.04552         0.45336
C          1.35286        19.09672         0.84490
C          0.13295        18.39543         0.73775
C          1.34025        20.52106         1.25878
C          0.12257        21.35022         1.17239
C          1.41058        23.45982         1.34544
C          0.17276        22.69547         1.32085
C          1.36253        24.86681         1.38520
C          0.17568        25.65967         1.63215
C          1.26267        27.74427         0.77971
C          0.14878        27.00983         1.48105
C          1.32999        29.23649         0.99968
C          3.62599         3.43632        -0.44129
C          2.42456         4.10180        -0.75888
C          3.67180         6.30298        -0.69587
C          2.47148         5.54463        -1.05211
C          3.65070         7.74216        -0.70974
C          2.39588         8.47646        -0.86425
C          3.64237        10.62907        -0.75070
C          2.40197         9.90963        -0.80600
C          3.65093        12.01866        -0.60618
C          2.44326        12.76626        -0.49658
C          3.70759        14.91579        -0.26640
C          2.47684        14.19403        -0.25670
C          3.77304        16.28428         0.02605
C          2.55695        17.01232         0.31907
C          3.83220        19.15545         0.62825
C          2.57248        18.41781         0.61618
C          3.87604        20.51833         0.84284
C          2.66364        21.27398         1.22601
C          3.81865        23.41667         0.71174
C          2.64697        22.74870         1.10647
C          3.86725        24.87583         0.87622
C          2.60985        25.62724         1.25285
C          3.77789        27.76432         0.82886
C          2.59738        27.07621         1.00222
C          3.83793        29.23615         1.15660
C          2.48878        29.91143         1.03985
C          6.05121         3.44870        -0.01823
C          4.83917         4.13976        -0.28053
C          6.06322         6.28450        -0.11149
C          4.83424         5.58743        -0.34967
C          6.07396         7.74155        -0.18464
C          4.84102         8.44332        -0.47159
C          6.09499        10.55711        -0.52390
C          4.89076         9.88483        -0.59894
C          6.12625        11.97606        -1.03121
C          4.96381        12.74223        -0.37619
C          6.23058        14.88360        -0.59798
C          4.90300        14.20122        -0.84339
C          6.24414        16.31058        -0.30300
C          5.05586        16.96436         0.03122
C          6.41803        19.09569         0.51180
C          5.09569        18.37123         0.50324
C          6.41828        20.59870         0.48145
C          5.12371        21.31095         0.71699
C          6.18730        23.44494        -0.07993
C          5.02994        22.74745         0.35565
C          6.10196        24.90262        -0.35449
C          4.89261        25.65140         0.14555
C          6.10672        27.80039        -0.03234
C          4.98273        27.09613         0.39764
C          6.07811        29.26488         0.02898
C          4.98363        29.93227         0.47590
C          8.50873         3.43410         0.38306
C          7.26591         4.13031         0.16615
C          8.50180         6.30434         0.26958
C          7.23525         5.56453         0.12970
C          8.41021         7.74986         0.60949
C          7.22561         8.45423         0.10060
C          8.59127        10.58961         0.09962
C          7.22140         9.94737         0.24936
C          8.67493        12.02238        -0.29471
C          7.44634        12.70322        -0.83666
C          8.68880        14.87228        -1.06098
C          7.39474        14.18262        -0.74454
C          8.67941        16.32608        -0.71114
C          7.53014        16.97794        -0.33035
C          8.75485        19.14493        -0.60899
C          7.72810        18.38309         0.19563
C          8.59195        20.55885        -0.94812
C          7.40239        21.30233        -0.39657
C          8.57982        23.47567        -0.78602
C          7.40653        22.78085        -0.37691
C          8.50730        24.93576        -1.01339
C          7.30939        25.70267        -0.60454
C          8.49821        27.88262        -0.81339
C          7.26642        27.09093        -0.55381
C          8.55702        29.30575        -0.37542
C          7.25785        30.05686        -0.50180
C         10.98540         3.43360         0.70835
C          9.73095         4.08327         0.54615
C         10.98129         6.26578         1.00515
C          9.77350         5.56272         0.46904
C         10.96563         7.76402         1.10881
C          9.66284         8.50693         0.91614
C         10.97268        10.64609         0.83986
C          9.70751         9.93616         0.51679
C         10.99348        12.14341         0.86497
C          9.75365        12.94015         0.33460
C         11.11764        14.83078        -0.84066
C          9.94070        14.16963        -0.55682
C         11.11061        16.27764        -1.01825
C          9.94804        17.01003        -0.82754
C         11.13048        19.16515        -1.26581
C          9.95554        18.47619        -0.86632
C         11.13457        20.62345        -1.49723
C          9.79929        21.36169        -1.35147
C         11.05942        23.52087        -1.13991
C          9.79664        22.81099        -1.07676
C         11.06353        24.92744        -1.12011
C          9.81054        25.68484        -1.23853
C         11.00253        27.75685        -0.31173
C          9.79812        27.17462        -1.04177
C         11.02617        29.27083        -0.31265
C          9.75094        29.95079        -0.23095
C         13.47661         3.32870         0.88376
C         12.20305         4.13345         0.77714
C         13.47514         6.29807         0.83734
C         12.26140         5.54660         0.84738
C         13.45875         7.71680         0.84189
C         12.24762         8.48823         0.91547
C         13.49344        10.64648         1.01100
C         12.23832         9.88212         0.82638
C         13.52682        12.12486         0.86425
C         12.33053        12.80264         1.03678
C         13.70704        14.77371        -0.86566
C         12.38191        14.08241        -1.06992
C         13.71266        16.28372        -0.98810
C         12.39958        17.02307        -0.75390
C         13.68992        19.24528        -1.15909
C         12.38850        18.44044        -1.31063
C         13.61259        20.70198        -1.02902
C         12.38352        21.39330        -1.22427
C         13.54848        23.52944        -0.58699
C         12.31243        22.78719        -1.08032
C         13.60515        24.94447        -1.14377
C         12.31441        25.70016        -1.17508
C         13.52139        27.77607        -0.20742
C         12.29744        27.16755        -0.84439
C         13.50384        29.28855        -0.29480
C         12.22448        29.95016        -0.29290
C         15.92729         3.44532         0.41216
C         14.73060         4.13057         0.62262
C         15.95548         6.23054         0.52087
C         14.72411         5.54896         0.67776
C         15.98726         7.69190         0.76271
C         14.72308         8.48170         0.49134
C         16.10426        10.66868         1.08411
C         14.77214         9.89252         1.08337
C         16.00125        12.08468         0.54173
C         14.79278        12.75804         0.49956
C         16.07570        14.91034         0.12777
C         14.85452        14.10570        -0.15540
C         16.02335        16.40894         0.23085
C         14.90689        17.07188        -0.55765
C         16.15282        19.23251        -0.57155
C         14.80425        18.58709        -0.34835
C         16.18151        20.67488        -1.03988
C         14.85347        21.41138        -0.84765
C         16.17297        23.52971        -0.90950
C         14.85023        22.78212        -0.76145
C         16.08183        24.96114        -0.47851
C         14.92435        25.71840        -0.89049
C         15.99893        27.82020        -0.18225
C         14.83582        27.15215        -0.60491
C         15.95952        29.26920        -0.08296
C         14.70123        29.96206        -0.22093
C         18.38070         3.43302        -0.03039
C         17.14466         4.13142         0.18582
C         18.35873         6.29838        -0.25331
C         17.14411         5.55030         0.23797
C         18.49809         7.72306         0.21170
C         17.28354         8.42937         0.65164
C         18.47833        10.62235         0.08265
C         17.20300         9.89431         0.37674
C         18.47615        12.09029         0.25961
C         17.26059        12.77560         0.30535
C         18.53360        14.94812         0.27286
C         17.26913        14.23236         0.25472
C         18.54170        16.38596         0.13850
C         17.33539        17.10813         0.00192
C         18.60193        19.20443        -0.23261
C         17.33502        18.52128        -0.27149
C         18.67911        20.69827        -0.46813
C         17.35380        21.42381        -0.43419
C         18.52219        23.52719         0.12865
C         17.33169        22.77666        -0.29282
C         18.47332        24.93045         0.28840
C         17.13447        25.62650         0.35961
C         18.40123        27.82362         0.31910
C         17.20727        27.11168         0.07295
C         18.37536        29.26204         0.32860
C         17.14863        29.95350         0.13814
C         19.58327         4.10962        -0.16413
C         20.84928         6.24590        -0.30820
C         19.64249         5.52098        -0.18014
C         20.87361         7.63295        -0.29155
C         19.69331         8.40691         0.00031
C         20.91383        10.59366         0.23636
C         19.74688         9.86599         0.11160
C         20.91108        12.01295         0.30190
C         19.73982        12.77235         0.29987
C         20.96904        14.96154         0.33605
C         19.74879        14.23370         0.32429
C         20.98956        16.33983         0.24305
C         19.79440        17.08546         0.10542
C         21.04037        19.28796         0.03171
C         19.79413        18.51808        -0.03228
C         21.03320        20.61635         0.24842
C         19.71281        21.32377         0.46691
C         20.89581        23.56998         0.63933
C         19.73957        22.83595         0.35216
C         20.87038        24.96123         0.66759
C         19.65853        25.66615         0.52809
C         20.77189        27.88297         0.87836
C         19.62949        27.13192         0.59807
C         20.74176        29.29099         0.87667
C         19.56964        29.97415         0.60343
O         17.51086        10.21265        -0.99233
O          6.16656        21.17037         1.78488
O         12.32058        12.94186        -1.51838
O         12.32945        26.76987        -2.21620
O         10.67708        11.42968         2.11563
O         14.08606        10.12466         2.33396
O          8.70978         8.18251         1.99783
O          8.98409        25.27080        -2.36333
O          9.42301         6.07671        -0.87440
O         10.89321         6.92312         2.31137
O          1.84641         5.89910        -2.31920
O         13.26974        18.71294        -2.43490
O         16.73542         8.04330         1.96742
O         10.88555        27.30583         1.03879
O         14.43913        25.22905        -2.24373
O          7.37513        20.78299        -1.77510
O          4.98298        25.25627        -1.25940
O          2.09260        20.78043         2.48881
O         14.72564        14.08427        -1.64357
O          9.15746        27.84191        -2.15431
O         14.70292        16.73065        -1.94964
O          8.50374        12.20846        -1.74748
O          3.65390        25.28320         2.25487
O          5.88666        18.54849         1.75402
O         10.35807        21.04429        -2.66516
O         13.42646         2.17148         0.03982
H         13.34209         2.47134        -0.88827
O          4.17199        29.28273         2.58997
H          3.59643        28.63563         3.05113
O          8.80545        14.80997        -2.52374
H          8.89978        13.85690        -2.75722
O         18.08461         6.44705        -1.71820
H         18.86085         6.90382        -2.11035
O          7.06032        30.32760        -1.90655
H          7.33129        29.53244        -2.41323
O          9.16840        13.52075         1.53296
H          9.20336        12.82722         2.23423
O         12.39226        17.15952         0.71257
H         11.57329        17.63273         0.97735
O         16.47175        23.48330        -2.36358
H         15.80854        24.07200        -2.80218
O         16.54938        10.77969         2.45767
H         15.74363        10.69587         3.02208
O         13.34754        23.74039         0.85317
H         13.37126        22.86571         1.29618
O         16.43392        20.66392        -2.48596
H         16.42941        21.61769        -2.76418
O         14.43977        18.91296         1.02413
H         14.86371        18.23938         1.61397
O         12.32015        14.11748         1.38785
H         11.40603        14.40857         1.59443
O          5.20893        12.77964         1.04605
H          5.41985        11.86837         1.35583
O         15.68063        16.65877         1.65759
H         16.42027        16.31450         2.20333
O         16.69754        25.50777         1.77198
H         15.85992        26.01354         1.86578
O         19.26913        21.03407         1.82412
H         19.86150        21.50659         2.44525
O         13.45177        27.41868         1.20492
H         12.45629        27.38280         1.44340
O          0.98897        27.56008        -0.65596
H          1.69672        28.02168        -1.15447
O          5.89984        11.91461        -2.46797
H          6.75314        11.64815        -2.87785
O          6.88351        10.23431         1.67255
H          7.45473         9.62489         2.20921
O          4.67596        14.26320        -2.27550
H          5.18889        13.53159        -2.70135
O         14.68179         8.71137        -0.94955
H         14.76941         7.85027        -1.41006
O          8.40297        18.20843         1.49178
H          7.68623        18.05352         2.15336
O         19.15365        20.87597        -1.83053
H         18.40516        20.62522        -2.42534
H          1.16065         2.34704        -0.67888
H         -0.96089         3.60431        -0.61974
H         -0.99646         6.05664        -0.52564
H         -1.00215         8.01749        -1.03326
H         -0.99853        10.44848        -0.82248
H         -0.96973        12.33822        -0.46606
H         -0.91423        14.70322         0.02349
H         -0.85927        16.53814         0.40290
H         -0.81728        18.91561         0.91526
H         -0.85349        20.86462         1.03370
H         -0.77169        23.25746         1.31272
H         -0.71749        25.15441         2.02956
H         -0.76234        27.56931         1.74085
H          0.37577        29.78750         0.98762
H          3.61363         2.34497        -0.30097
H          2.47443        31.00906         1.13519
H          6.03576         2.34906         0.01598
H          4.98384        31.03353         0.47482
H          8.48373         2.33387         0.40279
H          7.31287        31.04565         0.01851
H         11.02046         2.33401         0.71363
H          9.75615        31.03931        -0.05797
H         13.54137         2.93689         1.93912
H         12.21866        31.05122        -0.24373
H         15.91320         2.34568         0.39159
H         14.71266        31.06290        -0.22016
H         18.36958         2.33361        -0.03471
H         17.14233        31.05169         0.20258
H         20.52043         3.53895        -0.24994
H         21.79400         5.69163        -0.41469
H         21.83155         8.15166        -0.43301
H         21.88401        10.07952         0.28830
H         21.88797        12.51050         0.36644
H         21.92567        14.42729         0.40702
H         21.96010        16.85285         0.25002
H         21.99893        18.76287        -0.08522
H         21.98505        21.16300         0.31477
H         21.85005        23.05686         0.82259
H         21.81132        25.49871         0.84271
H         21.72479        27.38718         1.10573
H         21.66323        29.84713         1.09856
H         19.55005        31.07318         0.61199
