         732
 CSIRO Nanostructure Databank - Neutral Graphene Oxide Data Set
C         23.23671        24.80230        -2.97248
C         22.14473        25.51996        -3.33358
C         23.28644        27.65822        -2.92826
C         22.15721        26.95371        -3.27779
C         23.26142        29.14483        -2.87517
C         21.98812        29.82558        -2.61075
C         23.15371        31.83201        -1.82601
C         21.95913        31.11955        -2.20291
C         23.00874        33.15399        -1.18542
C         21.88698        34.03040        -1.54630
C         23.07011        36.02882        -0.70372
C         21.92215        35.35819        -1.29761
C         23.01303        37.47564        -0.53464
C         21.94406        38.24777        -0.95858
C         23.11865        40.36377        -0.51909
C         21.96815        39.65602        -0.88631
C         23.15737        41.81587        -0.54524
C         21.98369        42.57335        -0.75105
C         23.27193        44.62951        -0.80846
C         22.03481        43.95073        -0.86636
C         23.35599        46.07372        -1.05197
C         22.28473        46.75633        -1.64906
C         23.45979        48.85414        -1.44332
C         22.34087        48.13424        -1.85684
C         25.83852        23.23800        -2.58079
C         25.74882        24.69853        -2.39088
C         24.46814        25.48607        -2.54505
C         25.71334        27.65700        -2.40301
C         24.53233        26.97200        -2.66185
C         25.76130        29.09263        -2.20187
C         24.53446        29.88497        -2.48691
C         25.60742        31.91853        -1.47639
C         24.40022        31.22126        -1.86982
C         25.56675        33.21247        -0.98892
C         24.27377        33.85137        -0.67496
C         25.41291        35.86888         0.32050
C         24.23123        35.31405        -0.45696
C         25.38890        37.39224         0.44397
C         24.16269        38.18133         0.06623
C         25.50536        40.30010         0.12803
C         24.29032        39.64224        -0.13018
C         25.59743        41.72834        -0.06361
C         24.39740        42.48933        -0.37765
C         25.75911        44.62264        -0.58529
C         24.43872        43.90096        -0.51886
C         25.69848        46.08611        -0.18025
C         24.52230        46.79406        -0.66901
C         25.68876        48.97352        -0.30509
C         24.54562        48.19829        -0.84248
C         26.03294        50.25281        -0.95717
C         28.26228        23.30877        -2.17162
C         27.03361        22.60439        -2.44103
C         28.29214        24.72867        -2.27881
C         27.03703        25.44090        -2.56232
C         28.26030        27.61042        -2.05107
C         27.02069        26.95795        -2.49462
C         28.16198        28.97889        -1.39613
C         26.89831        29.72811        -1.77376
C         28.18850        31.94339        -1.45932
C         26.90097        31.21897        -1.72658
C         28.15225        33.39465        -1.07777
C         26.78566        34.05035        -0.87384
C         27.92099        35.97664         0.19184
C         26.74743        35.32487        -0.14536
C         27.84403        37.35593         0.65840
C         26.67202        38.11052         0.55847
C         27.89189        40.24860         0.74088
C         26.68685        39.55409         0.53167
C         27.99480        41.66011         0.52425
C         26.82457        42.39717         0.10432
C         28.03546        44.51717         0.38155
C         26.89561        43.84023         0.01605
C         27.98159        45.93202         0.71572
C         26.78335        46.73265         0.38145
C         28.05897        49.02247         0.60365
C         26.79038        48.24040         0.45500
C         28.28063        50.26927         0.00256
C         27.24222        50.84636        -0.82462
C         30.52687        20.53276        -1.07340
C         29.38055        21.24079        -1.36792
C         30.71175        23.25565        -1.78789
C         29.44713        22.59677        -1.77893
C         30.76622        24.65807        -2.39089
C         29.48626        25.46128        -2.19088
C         30.65215        27.57517        -1.37155
C         29.44773        26.89095        -2.01644
C         30.73241        29.10612        -1.73236
C         29.43256        29.81633        -1.46361
C         30.63370        31.88582        -0.80531
C         29.43212        31.16551        -1.21068
C         30.55073        33.25043        -0.35316
C         29.32379        33.99403        -0.41612
C         30.38933        35.90721         0.68205
C         29.22586        35.30212         0.10822
C         30.29265        37.22350         1.33335
C         29.01689        37.99121         1.24075
C         30.37044        40.20343         1.30419
C         29.05661        39.53521         1.27827
C         30.40686        41.61209         1.11260
C         29.21513        42.31818         0.76144
C         30.41136        44.42518         1.30393
C         29.34610        43.78854         0.46156
C         30.26136        45.75552         1.96275
C         28.94843        46.37529         1.59010
C         30.38668        48.95925         1.46815
C         29.06914        48.53414         1.46275
C         30.57049        50.29950         0.99383
C         29.51136        50.96556         0.29534
C         30.78203        53.04467         0.42483
C         29.68864        52.33427        -0.03431
C         32.99706        18.95017        -0.87165
C         33.00784        20.35989        -0.95261
C         31.80152        21.14169        -1.16493
C         33.25597        23.12314        -1.69761
C         31.87052        22.53578        -1.47322
C         33.28910        24.66239        -1.65101
C         32.04164        25.42245        -2.03398
C         33.20267        27.59576        -1.26481
C         31.97178        26.90362        -1.75801
C         33.07775        29.02367        -0.84817
C         31.93579        29.75954        -1.06314
C         33.01383        31.85468        -0.22075
C         31.86527        31.17988        -0.71314
C         32.95127        33.19694         0.22495
C         31.71040        33.89985         0.17765
C         32.84954        35.93084         1.09651
C         31.64042        35.24724         0.66870
C         32.84932        37.30953         1.36762
C         31.57553        38.01183         1.56755
C         32.81251        40.17404         1.55905
C         31.56692        39.48792         1.49891
C         32.83789        41.60662         1.53932
C         31.64281        42.31098         1.29742
C         32.80769        44.50464         1.69456
C         31.61824        43.75548         1.43086
C         32.72706        45.95489         1.73972
C         31.51945        46.63573         1.80888
C         32.82306        48.83543         2.00483
C         31.47812        48.13586         2.17607
C         32.80782        50.31635         2.10168
C         31.69383        51.04623         1.45003
C         32.80661        53.24282         1.97421
C         31.78033        52.41984         1.20854
C         32.87829        54.66160         1.47659
C         35.39487        18.86655        -0.37056
C         34.15634        18.22746        -0.62275
C         35.42557        20.29076        -0.38612
C         34.25697        21.02507        -0.75339
C         35.43713        23.12157        -0.39405
C         34.31812        22.44032        -0.86508
C         35.33230        24.57719        -0.16594
C         34.31485        25.39072        -0.85820
C         35.45074        27.46513        -0.12008
C         34.33200        26.77169        -0.75619
C         35.48994        28.88278        -0.03448
C         34.35218        29.68473        -0.51895
C         35.42775        31.73615         0.56659
C         34.31701        31.16630        -0.21179
C         35.33013        33.10376         0.94333
C         34.12942        33.85188         0.74021
C         35.29587        35.85531         1.60509
C         34.10451        35.20800         1.15498
C         35.27228        37.29024         2.06990
C         34.04417        38.04740         1.63884
C         35.28148        40.16285         2.17861
C         34.02862        39.43406         1.73785
C         35.29344        41.63551         1.81372
C         34.08047        42.33156         1.68459
C         35.26757        44.48368         1.75102
C         34.06037        43.79467         1.69802
C         35.29946        45.95909         1.71986
C         34.00823        46.70797         1.68764
C         35.30348        48.85882         1.91856
C         34.01359        48.16450         1.98462
C         35.33910        50.27302         1.86351
C         34.12758        51.05726         2.16350
C         35.20333        53.02597         0.99067
C         34.21209        52.58436         2.03636
C         35.00950        54.31303         0.19446
C         33.84714        55.13486         0.68806
C         37.85064        16.02728        -0.05013
C         36.66175        16.71827        -0.18095
C         37.84185        18.83583         0.09628
C         36.62169        18.13350        -0.13972
C         37.83956        20.26502         0.17648
C         36.63137        20.99158        -0.06892
C         37.81125        23.11780         0.37618
C         36.60750        22.41205         0.01825
C         37.81151        24.52395         0.48922
C         36.55793        25.28240         0.37825
C         37.79153        27.40616         0.63865
C         36.60022        26.74227         0.26725
C         37.77575        28.80078         0.84116
C         36.62052        29.54319         0.50879
C         37.66363        31.56403         1.53109
C         36.58882        30.96953         0.80634
C         37.44093        32.83961         2.03530
C         36.43198        33.71993         1.59386
C         37.77868        35.86889         1.84507
C         36.50604        35.14879         1.77111
C         37.76971        37.29387         1.64960
C         36.55305        38.03138         1.77076
C         37.75455        40.14976         1.58287
C         36.54283        39.42333         1.77725
C         37.75272        41.60350         1.60377
C         36.54080        42.30882         1.70298
C         37.78635        44.53973         1.81808
C         36.53945        43.78650         1.38487
C         37.81300        45.89722         1.96191
C         36.53438        46.67410         2.24898
C         37.71959        48.82529         1.56327
C         36.52698        48.13629         1.83388
C         37.69716        50.20941         1.26991
C         36.50180        50.94824         1.41283
C         37.53490        52.95491         0.28010
C         36.39424        52.33679         0.93335
C         37.48495        54.25779        -0.19645
C         36.31791        55.08849         0.11438
C         37.67159        57.14862         0.68862
C         36.44889        56.37693         0.57588
C         40.38676        14.56828         0.05728
C         40.34418        15.97707         0.18403
C         39.08616        16.69987         0.13243
C         40.30515        18.82786         0.45548
C         39.07384        18.11645         0.23207
C         40.27927        20.24997         0.61852
C         39.04984        20.96560         0.46217
C         40.25644        23.09866         0.74887
C         39.03717        22.39086         0.55177
C         40.26259        24.52615         0.73014
C         39.02388        25.24411         0.65998
C         40.24776        27.36510         0.91434
C         39.01636        26.65695         0.78915
C         40.27041        28.76468         1.15695
C         38.98514        29.42862         1.42230
C         40.28817        31.61340         1.74755
C         38.97167        30.88338         1.80503
C         40.33367        33.05760         1.79963
C         39.25226        33.86178         2.21659
C         40.25873        35.91250         1.47683
C         39.05804        35.21642         1.84051
C         40.22742        37.31456         1.26847
C         38.97988        38.01919         1.39078
C         40.15759        40.20244         0.97077
C         38.94431        39.44113         1.33447
C         40.20912        41.64834         1.25746
C         39.00925        42.31020         1.53964
C         40.36757        44.49396         1.70637
C         39.03061        43.74334         1.87358
C         40.33076        45.93736         1.51349
C         39.09545        46.64967         1.91231
C         40.14504        48.69196         0.74578
C         39.03829        48.12852         1.63090
C         40.21917        50.19051         0.75190
C         38.96184        50.93135         0.97778
C         40.04888        52.94192        -0.23570
C         38.86232        52.33630         0.45378
C         39.97564        54.40535        -0.48412
C         38.70363        54.88276        -0.66737
C         40.10456        57.50169        -0.06537
C         38.73648        56.97728        -0.14715
C         40.22884        58.86159         0.26532
C         42.80366        14.60447         0.12072
C         41.59622        13.89498         0.02612
C         42.80769        15.98644         0.28896
C         41.57010        16.69357         0.31948
C         42.75538        18.84399         0.74108
C         41.53913        18.12698         0.48807
C         42.70497        20.23243         1.02142
C         41.48922        20.95298         0.90914
C         42.69443        23.12903         1.03703
C         41.48685        22.39476         0.94686
C         42.72372        24.52643         0.82546
C         41.48243        25.24002         0.73361
C         42.69406        27.39748         0.73706
C         41.47399        26.66765         0.77053
C         42.70533        28.76626         0.99466
C         41.48137        29.47048         1.24778
C         42.73996        31.62857         1.31086
C         41.47773        30.91327         1.47090
C         42.74177        33.05725         1.30054
C         41.52403        33.77073         1.46515
C         42.72869        35.90844         1.34289
C         41.49426        35.19393         1.41083
C         42.67977        37.33554         1.29409
C         41.46992        38.00540         1.12732
C         42.73000        40.21094         0.93352
C         41.47466        39.45292         0.85224
C         42.69821        41.61412         0.88480
C         41.46823        42.33794         1.11926
C         42.72267        44.46233         0.94582
C         41.52894        43.74075         1.22999
C         42.72646        45.88275         0.92382
C         41.49551        46.61080         1.11015
C         42.67275        48.73447         0.63776
C         41.48869        48.03190         0.90359
C         42.65283        50.15400         0.37794
C         41.38413        50.84288         0.41897
C         42.60056        52.99481        -0.21091
C         41.35391        52.22639        -0.11793
C         42.53438        54.44653        -0.52096
C         41.21300        55.22401        -0.68570
C         42.50819        57.37981        -0.42979
C         41.24725        56.71144        -0.40456
C         42.58463        58.76496        -0.15837
C         41.46464        59.50022         0.20408
C         45.26552        16.00449         0.97578
C         44.12497        16.73577         0.29981
C         45.19290        18.83744         1.09139
C         44.00887        18.15194         0.81869
C         45.22762        20.25129         1.16344
C         43.95112        20.93302         1.36147
C         45.23559        23.14763         1.03809
C         43.96627        22.46798         1.34009
C         45.19662        24.54518         0.74366
C         43.96174        25.21869         0.71836
C         45.17867        27.39231         0.17571
C         43.87128        26.62153         0.17960
C         45.18828        28.85726         0.48248
C         44.02360        29.45690         1.24493
C         45.18657        31.66395         0.92404
C         43.96639        30.95506         1.12098
C         45.17338        33.06984         0.93175
C         43.96356        33.77720         1.15411
C         45.22480        35.89568         1.37383
C         43.95910        35.20583         1.26926
C         45.22580        37.35098         1.66290
C         43.91978        38.10279         1.51901
C         45.18978        40.16834         0.96160
C         43.97415        39.52057         1.11968
C         45.19345        41.55735         0.38899
C         43.93146        42.33504         0.72143
C         45.16529        44.46840         0.42495
C         43.92385        43.71913         0.68378
C         45.17188        45.93138         0.58747
C         43.95066        46.61361         0.70829
C         45.12825        48.75217         0.31483
C         43.93414        48.04423         0.59181
C         45.09634        50.17450         0.08731
C         43.83833        50.86823         0.12416
C         45.07210        52.99977        -0.24003
C         43.81719        52.31490        -0.07648
C         45.09178        54.47096        -0.18076
C         43.76749        55.22622        -0.21383
C         44.98926        57.27148        -0.78594
C         43.77373        56.65677        -0.56030
C         46.37426        16.64028         1.37490
C         47.57938        18.75591         0.49916
C         46.49922        18.14120         1.40975
C         47.65303        20.26156         0.72334
C         46.44790        20.97454         1.00959
C         47.67269        23.11765         0.68194
C         46.44224        22.41737         0.95576
C         47.67269        24.54001         0.52637
C         46.43900        25.26192         0.51173
C         47.68061        27.37766         0.27842
C         46.45188        26.65289         0.29008
C         47.68200        28.82169         0.35806
C         46.48971        29.55223         0.57960
C         47.66729        31.69994         0.56905
C         46.46032        30.96506         0.69646
C         47.69446        33.09680         0.69544
C         46.40004        33.85388         0.54321
C         47.69963        35.86096         1.42491
C         46.40693        35.22391         1.16289
C         47.71563        37.40804         1.53384
C         46.45613        38.11697         1.41586
C         47.70500        40.19689         1.01785
C         46.44928        39.48145         1.13070
C         47.67949        41.63060         0.87778
C         46.47319        42.28996         0.70890
C         47.67651        44.51438         0.92867
C         46.46889        43.73798         0.46837
C         47.64585        45.93990         0.44948
C         46.40684        46.63253         0.44155
C         47.59193        48.74320         0.00815
C         46.38061        48.05351         0.25844
C         47.55375        50.17219        -0.23738
C         46.29650        50.87051        -0.19175
C         47.51456        53.01245        -0.62242
C         46.28170        52.30050        -0.36060
C         47.52938        54.43215        -0.76497
C         46.30610        55.19714        -0.58404
C         46.21776        56.55676        -0.82469
C         50.07179        18.77977         0.59650
C         48.91338        18.08564         0.63285
C         50.10903        20.21964         0.44573
C         48.86745        20.94878         0.54082
C         50.08681        23.10387         0.22536
C         48.88205        22.39590         0.52210
C         50.09643        24.49034         0.10652
C         48.89266        25.23633         0.27635
C         50.16363        27.37792         0.08965
C         48.90616        26.66582         0.19887
C         50.12912        28.81908         0.15483
C         48.93323        29.51198         0.28490
C         50.19665        31.70689         0.44312
C         48.91233        31.00547         0.06418
C         50.18409        33.10210         0.66368
C         48.92862        33.80755         0.75339
C         50.16365        35.92190         1.11694
C         48.94826        35.19720         1.04379
C         50.15209        37.36520         1.17582
C         48.95678        38.09966         1.21426
C         50.20670        40.21431         0.91244
C         48.94622        39.51395         1.05705
C         50.17727        41.64827         0.71394
C         48.94715        42.35820         0.77053
C         50.12363        44.47155         0.29819
C         48.94597        43.76264         0.63412
C         50.09716        45.89125         0.09619
C         48.85181        46.61448         0.17791
C         50.04456        48.69085        -0.37476
C         48.82346        48.02695        -0.04870
C         50.06892        50.19411        -0.41395
C         48.72793        50.86463        -0.53477
C         49.95220        52.94657        -1.09487
C         48.72876        52.27925        -0.76025
C         49.92968        54.34496        -1.22790
C         48.75381        55.06848        -1.05397
C         52.57997        20.27161         0.41300
C         51.33450        20.90366         0.27621
C         52.60281        23.10456         0.07708
C         51.31786        22.33780        -0.19470
C         52.61141        24.46410        -0.07991
C         51.32985        25.19318        -0.41764
C         52.64583        27.34509        -0.07451
C         51.37070        26.67353        -0.07798
C         52.67186        28.83269        -0.13512
C         51.38545        29.58742        -0.03480
C         52.65354        31.69665         0.53275
C         51.41952        31.02357         0.34961
C         52.66480        33.11266         0.76068
C         51.41550        33.80840         0.79708
C         52.63515        35.92823         1.15917
C         51.40703        35.22116         0.99033
C         52.51871        37.29058         1.50936
C         51.38633        38.09153         1.22562
C         52.74918        40.29967         0.93901
C         51.42320        39.51386         1.01709
C         52.60329        41.64429         0.24182
C         51.37867        42.35594         0.39220
C         52.51927        44.44642        -0.31100
C         51.33686        43.75210         0.10119
C         52.51727        45.85742        -0.43653
C         51.29578        46.57112        -0.25290
C         52.38347        48.58762        -1.22543
C         51.23359        47.98765        -0.49542
C         52.22472        49.95434        -1.80524
C         51.09095        50.78723        -1.35063
C         52.42076        52.80707        -1.74091
C         51.14534        52.16312        -1.42824
C         53.78744        20.98139         0.38844
C         55.08132        23.11240         0.41757
C         53.83422        22.37587         0.28008
C         55.14198        24.49650         0.11346
C         53.89835        25.18397        -0.41145
C         55.12880        27.39916        -0.19353
C         53.84771        26.66118        -0.08190
C         55.13728        28.85347         0.09990
C         53.93388        29.55389         0.15478
C         55.12084        31.63717         0.60822
C         53.90773        30.96019         0.43697
C         55.17632        33.08892         1.02202
C         53.88820        33.85409         0.85580
C         55.14077        35.99395         0.61629
C         53.91569        35.26226         0.96296
C         55.25553        37.38028         0.48316
C         54.29384        38.32511         1.00642
C         54.85947        40.00123        -0.62811
C         53.93325        39.49452         0.40677
C         54.77893        41.46581        -0.97480
C         53.68122        42.27800        -0.40091
C         54.86020        44.33193        -1.17467
C         53.68883        43.68010        -0.63205
C         54.90975        45.73762        -1.26989
C         53.86460        46.55455        -0.53142
C         54.78555        48.56260        -1.98648
C         53.79934        48.11140        -0.91847
C         54.66293        49.85517        -2.52509
C         53.37285        50.65948        -2.51927
C         53.51149        52.09698        -2.09089
C         57.44307        23.16259         0.99693
C         56.25591        22.46625         0.85985
C         57.53298        24.53369         0.67907
C         56.36807        25.19050         0.20150
C         57.76501        27.38719        -0.05556
C         56.42942        26.63523        -0.16574
C         57.61906        28.82995         0.40610
C         56.37564        29.52495         0.33333
C         57.59147        31.66079         0.55037
C         56.35382        30.93696         0.53562
C         57.55505        33.10055         0.30513
C         56.36973        33.78337         0.41448
C         57.53122        35.86320        -0.31290
C         56.20304        35.18029        -0.11535
C         57.65727        37.35723        -0.25332
C         56.32674        38.03506        -0.24088
C         57.24770        39.98077        -1.44519
C         56.17045        39.31086        -0.74181
C         57.13292        41.31886        -1.81376
C         55.99317        42.14257        -1.46300
C         57.31752        44.23099        -1.80570
C         56.00695        43.52785        -1.54976
C         57.18459        45.66945        -2.23585
C         56.04465        46.40347        -1.87217
C         57.06490        48.41971        -2.90159
C         55.96867        47.80979        -2.22701
C         56.92168        49.73047        -3.40824
C         55.72388        50.40612        -3.27014
C         59.93452        24.59768         1.39395
C         58.79036        25.26083         0.90230
C         60.03853        27.36030         0.98592
C         58.85843        26.65613         0.68781
C         60.11176        28.87035         0.94518
C         58.78667        29.54645         0.66195
C         60.13241        31.68352         0.45966
C         58.79712        30.96751         0.59573
C         59.99965        33.05996        -0.17475
C         58.77060        33.73974        -0.16800
C         59.89248        35.79255        -1.02200
C         58.70787        35.13543        -0.51868
C         59.77838        37.14805        -1.54910
C         58.62267        37.91314        -1.26396
C         59.50260        39.80243        -2.54491
C         58.45916        39.22316        -1.76217
C         59.41109        41.18911        -2.96172
C         58.18247        41.93224        -2.64916
C         59.47750        44.09125        -3.15322
C         58.22368        43.45120        -2.73577
C         59.51925        45.54582        -3.14601
C         58.33218        46.29281        -2.82330
C         59.47886        48.33893        -3.53168
C         58.30275        47.69141        -3.09175
C         61.10837        25.29493         1.66450
C         61.15539        26.67669         1.48555
C         61.12321        29.45316        -0.02453
C         61.12195        30.77401        -0.24731
C         61.15533        33.74751        -0.59793
C         61.09178        35.06720        -1.05382
C         60.77150        37.71859        -2.37981
C         60.63870        39.01475        -2.84859
C         60.46509        41.87676        -3.54738
C         60.49110        43.29076        -3.65406
C         60.66678        46.23348        -3.56450
C         60.65241        47.62281        -3.72830
O         57.58176        42.68051        -3.77859
O         34.79608        46.46986         0.43204
O         54.19464        48.85689         0.21275
O         32.86255        27.56634        -2.71623
O         47.79218        36.53576         2.71531
O         44.41681        54.94431         1.05630
O         28.68210        47.51400         2.34516
O         33.36603        50.76212         3.38650
O         30.46686        27.46392         0.01288
O         24.43087        37.78990         1.48543
O         55.81794        26.98841        -1.46774
O         28.73245        38.73531         2.45806
O         39.14748        52.09011         1.87984
O         27.70465        31.75974        -2.83875
O         24.09773        29.80635        -3.88428
O         23.37943        33.12138         0.23052
O         43.92347        21.72341         2.60333
O         27.12425        26.23952        -3.78404
O         54.26020        40.42493        -1.89601
O         38.29665        33.28525         3.04972
O         44.48314        37.80034         2.84747
O         27.55874        34.21326        -2.12436
O         24.96593        25.05706        -1.20103
O         38.54209        56.14146        -1.26104
O         30.85556        37.34181         2.67281
O         40.68914        39.81698        -0.34462
O         40.54689        52.20591        -1.40225
O         39.86625        44.05678         3.02586
O         34.74449        30.68105        -1.53719
O         25.70049        48.90827         1.16636
O         35.46574        24.85472         1.27443
O         45.89303        44.08153        -0.83725
O         52.00448        29.34438        -1.35674
O         39.35878        47.67299         2.96935
O         51.92839        48.73218        -2.62079
O         33.10384        25.18399        -3.00626
O         42.00707        54.80579        -1.84456
O         38.85874        29.85166         2.84028
O         45.04628        28.40909        -0.90383
O         53.59515        37.91137         2.15444
O         28.07597        28.68189         0.03943
H         28.93300        28.18539         0.26234
O         29.87932        43.86892        -0.92826
H         29.15660        43.59242        -1.53200
O         55.40538        33.07576         2.48155
H         56.20997        32.53871         2.64535
O         51.23095        25.10132        -1.88865
H         52.14018        25.29786        -2.23631
O         46.87266        18.50416         2.76145
H         46.13643        18.26248         3.36060
O         58.29754        27.49944        -1.41112
H         57.52112        27.61036        -2.00870
O         31.20993        48.16885         3.60270
H         30.62664        47.40328         3.82125
O         50.54527        50.55314         0.94174
H         50.61936        51.53103         0.98301
O         60.67310        31.93070         1.80478
H         60.06609        32.55142         2.26056
O         46.28884        34.09360        -0.91451
H         46.43283        33.23261        -1.36447
O         33.60849        22.72568        -3.05441
H         33.22316        23.41367        -3.65057
O         25.24816        35.33342         1.66570
H         24.63133        35.94353         2.13415
O         47.09834        18.53044        -0.86580
H         47.76565        18.89461        -1.48585
O         52.96915        50.74435        -3.92294
H         52.57434        49.87051        -4.14617
O         34.66610        53.88951        -1.16370
H         35.47911        53.52734        -1.57591
O         26.08344        44.67604        -2.03444
H         25.88419        43.79290        -2.41200
O         51.24187        22.26099        -1.65880
H         51.20024        23.19737        -1.98728
O         34.82936        53.05769         3.26490
H         34.09026        53.34594         3.85407
O         53.06561        40.65348         2.32287
H         53.22036        39.80594         2.80149
O         47.54603        44.55738         2.39157
H         48.33059        45.02300         2.75136
O         36.40764        46.66300         3.69924
H         37.22879        47.05357         4.07149
O         58.02755        44.25180        -0.52065
H         57.51438        44.81794         0.09525
O         39.67235        48.33453        -0.61013
H         40.29551        48.72743        -1.25884
O         55.63981        35.00713        -1.48084
H         56.30105        34.51161        -2.01043
O         45.20516        41.40316        -1.07495
H         45.34586        42.31106        -1.44266
O         58.24884        37.65300         1.07693
H         59.15136        37.26712         1.08138
O         36.59710        43.85668        -0.09449
H         36.18538        44.70643        -0.36948
O         32.30549        53.29631         3.33666
H         32.29285        52.36568         3.67242
O         60.51304        29.24272         2.29266
H         60.69565        30.21691         2.30183
O         30.81682        24.41222        -3.83105
H         30.98458        25.26893        -4.27851
O         30.89821        29.23159        -3.16225
H         31.78780        28.86089        -3.38936
O         54.35531        46.51731         0.83686
H         54.46716        47.49478         1.07846
O         35.18765        37.25049         3.54798
H         34.35024        36.79520         3.78385
O         44.36115        29.16395         2.64633
H         43.67183        29.57273         3.21208
O         35.26459        40.12427         3.64435
H         35.27190        39.16825         3.90268
O         53.96439        25.11857        -1.88945
H         54.70658        25.72495        -2.14923
O         30.17600        45.52290         3.42978
H         29.35418        45.01774         3.60990
O         43.51879        26.40325        -1.22815
H         43.78816        27.22056        -1.70948
O         44.51495        16.88297        -1.10553
H         45.35793        17.39655        -1.12524
O         48.81914        31.16516        -1.40263
H         49.58126        30.68788        -1.79860
H         23.20944        23.70443        -2.97504
H         21.22463        25.01180        -3.65370
H         21.23419        27.48455        -3.54593
H         21.04515        29.27105        -2.71236
H         20.98662        31.59989        -2.02707
H         21.02922        33.60655        -2.08760
H         21.05327        35.96007        -1.59186
H         21.04025        37.78352        -1.37291
H         21.06656        40.19563        -1.20291
H         21.00857        42.07409        -0.82045
H         21.10139        44.50770        -1.02071
H         21.39021        46.20742        -1.97217
H         23.47213        49.94500        -1.56991
H         21.49369        48.65478        -2.32367
H         24.92017        22.65145        -2.72176
H         25.30287        50.69049        -1.65313
H         27.06284        21.50944        -2.52867
H         27.44538        51.77657        -1.37256
H         30.43929        19.47975        -0.77456
H         28.40790        20.73779        -1.28796
H         30.86624        54.11723         0.20239
H         28.91236        52.86497        -0.60161
H         32.06355        18.39552        -1.03798
H         32.06199        55.32805         1.79567
H         34.09156        17.13109        -0.60892
H         33.77588        56.17093         0.32314
H         37.82247        14.93143        -0.10743
H         35.73764        16.14653        -0.33882
H         37.73374        57.87530         1.51162
H         35.56448        56.84023         1.04197
H         39.45863        13.98989        -0.03617
H         39.32460        59.42869         0.52657
H         43.74914        14.05074         0.04563
H         41.61424        12.80292        -0.09289
H         43.56001        59.26744        -0.17788
H         41.55266        60.56899         0.43990
H         45.22821        14.90664         1.04351
H         45.03075        58.34340        -1.02303
H         47.20073        16.06576         1.82258
H         47.11482        57.12270        -1.10996
H         51.01837        18.22404         0.64239
H         48.93428        16.98749         0.69099
H         50.84700        54.89083        -1.48464
H         48.79325        56.16090        -1.15716
H         52.63426        19.19397         0.61931
H         52.51988        53.88420        -1.54350
H         54.71570        20.40845         0.51465
H         54.48094        52.59987        -2.22086
H         58.32125        22.61835         1.36492
H         56.23886        21.40067         1.12259
H         57.74067        50.20313        -3.96558
H         55.59915        51.39599        -3.73056
H         59.92365        23.51370         1.56392
H         59.48579        49.42430        -3.69506
H         61.98861        24.75596         2.04124
H         62.06350        27.24006         1.73939
H         61.85097        28.79515        -0.52305
H         61.85321        31.22217        -0.93648
H         62.13017        33.24189        -0.57149
H         62.01408        35.54725        -1.40942
H         61.66397        37.13827        -2.65117
H         61.43887        39.43096        -3.47498
H         61.37178        41.33549        -3.85093
H         61.40458        43.74742        -4.05951
H         61.59253        45.68306        -3.77892
H         61.56690        48.14357        -4.04402
