         618
 CSIRO Nanostructure Databank - Neutral Graphene Oxide Data Set
C         23.56312        69.08202         3.18185
C         23.49357        70.49042         3.26468
C         22.36277        71.14112         3.82863
C         23.39401        73.31282         3.51297
C         22.31982        72.53125         3.93478
C         25.89608        64.95371         1.76751
C         25.81014        66.36918         1.84909
C         24.73998        67.02000         2.50383
C         25.75955        69.23145         2.08984
C         24.68166        68.43403         2.60256
C         25.72882        70.66642         2.19761
C         24.58924        71.28780         2.79183
C         25.69212        73.46648         2.59751
C         24.54874        72.70669         2.94639
C         28.29797        60.91194         0.11319
C         28.22663        62.31578         0.35086
C         27.10310        62.90252         0.98879
C         27.99576        65.12525         0.52153
C         26.98322        64.30797         1.12463
C         27.90434        66.53809         0.55761
C         26.83451        67.18226         1.24236
C         27.79768        69.41202         0.70538
C         26.83121        68.60010         1.39838
C         28.09927        70.80700         1.26638
C         26.82580        71.46049         1.77268
C         28.07682        73.58126         1.96035
C         26.83221        72.85011         2.05963
C         30.24118        57.00634        -1.91203
C         30.15152        58.45553        -2.10157
C         29.12435        59.06116        -1.25065
C         30.46883        61.12582        -1.10837
C         29.29433        60.33976        -0.72192
C         30.61153        62.50953        -0.50581
C         29.27877        63.14438        -0.15236
C         30.11102        65.39411        -0.73674
C         29.10772        64.54428        -0.14454
C         30.11314        66.79612        -0.63390
C         28.89099        67.33555        -0.09284
C         30.38736        69.89242        -0.67293
C         28.60919        68.72034        -0.18379
C         30.24485        71.30957        -0.29675
C         29.07807        71.80303         0.56489
C         30.46057        73.77711         1.66295
C         29.21172        73.09466         1.35834
C         32.80784        53.08409        -0.43020
C         32.71109        54.58919        -0.33282
C         31.49250        55.15367        -0.98331
C         32.73101        57.14459        -1.81730
C         31.47574        56.42626        -1.55064
C         32.69456        58.44206        -2.65964
C         31.39846        59.22481        -2.39484
C         32.67949        61.40037        -2.27650
C         31.47813        60.60675        -1.87054
C         32.66253        62.88434        -2.09925
C         31.44859        63.39766        -1.39034
C         32.88481        65.88558        -1.73956
C         31.09333        64.69501        -1.51884
C         32.79495        67.07702        -1.02355
C         31.46787        67.58181        -0.41199
C         32.71725        69.81139         0.02459
C         31.46987        69.11851        -0.42764
C         32.72923        71.30618        -0.05283
C         31.56449        71.95926        -0.29677
C         32.96224        74.00546         1.38760
C         31.62953        73.76415         0.93286
C         35.33024        48.96004         0.51186
C         35.25083        50.36096         0.39256
C         34.08476        51.02504         0.00597
C         35.17552        53.31716         0.26812
C         33.97699        52.45284        -0.10014
C         35.17222        54.64666        -0.47508
C         33.99162        55.25194        -0.80698
C         35.19309        57.12009        -2.01145
C         33.92534        56.52920        -1.51990
C         35.22489        58.58386        -2.49683
C         33.95310        59.29676        -2.46920
C         35.20311        61.44213        -2.35626
C         33.97173        60.67855        -2.35582
C         35.18164        62.88515        -2.13361
C         33.97010        63.61968        -2.01501
C         35.25289        65.68701        -1.42652
C         34.02734        65.02897        -1.73630
C         35.25060        67.05239        -0.96594
C         34.02968        67.69247        -0.64921
C         35.26710        69.87868        -0.12310
C         34.02069        69.07675        -0.09275
C         35.26913        71.24577         0.06010
C         34.02822        72.12100        -0.09011
C         35.35534        73.88300         1.14685
C         34.08075        73.33879         0.86422
C         37.76501        44.70754         1.48269
C         37.41558        46.04990         1.59949
C         36.39884        46.82630         1.00392
C         37.79526        48.92853         0.70874
C         36.51947        48.23773         0.84600
C         37.68450        50.31533         0.17008
C         36.50897        51.15245         0.68771
C         37.62036        53.15268        -0.30926
C         36.45848        52.54366         0.08678
C         37.76141        54.66744        -0.36068
C         36.45281        55.38055        -0.62974
C         37.71333        57.22773        -1.97232
C         36.47066        56.64475        -1.42699
C         37.74521        58.60943        -2.31276
C         36.48450        59.33825        -2.41899
C         37.72555        61.46960        -2.68656
C         36.44439        60.73446        -2.49815
C         37.70922        62.92488        -2.32508
C         36.42450        63.60113        -1.98352
C         37.71853        65.73816        -1.68462
C         36.45664        64.95984        -1.65543
C         37.69386        67.12054        -1.14492
C         36.52623        67.73892        -0.77955
C         37.74407        69.93888        -0.34418
C         36.54646        69.07692        -0.03558
C         37.74402        71.28885        -0.09354
C         36.51770        71.96067         0.21265
C         37.81829        74.00036         0.81309
C         36.55370        73.29337         0.69908
C         40.35248        40.75844         2.70349
C         40.33574        42.11752         2.34596
C         39.11844        42.80251         2.11230
C         40.31670        44.92266         1.75890
C         39.05958        44.17996         1.84578
C         40.37397        46.31340         1.46714
C         39.26384        47.15847         1.58808
C         40.27315        48.87970         0.16016
C         39.08461        48.37680         0.86335
C         40.12280        50.04686        -0.80813
C         38.89633        50.97099        -0.44018
C         40.02695        53.25624        -0.27424
C         38.86539        52.45440        -0.32499
C         40.16936        54.46445        -0.95515
C         38.88648        55.05794        -1.32282
C         40.22825        57.00168        -2.37141
C         38.89088        56.38883        -2.06244
C         40.25663        58.51475        -2.53877
C         38.97674        59.25643        -2.46841
C         40.30184        61.36125        -2.26148
C         39.05742        60.69693        -2.86262
C         40.27123        62.84261        -2.22875
C         38.98085        63.48865        -1.71554
C         40.27864        65.60463        -1.26957
C         39.01969        65.00010        -1.80565
C         40.26409        67.05913        -0.90092
C         38.99878        67.83764        -1.10678
C         40.26046        69.86051        -0.17972
C         39.00123        69.26885        -0.71445
C         40.24858        71.33151         0.12377
C         39.00472        72.10581        -0.28337
C         40.27322        74.18736         0.38816
C         38.99964        73.46896         0.37327
C         42.68780        36.43766         3.65445
C         42.75886        37.96091         3.59156
C         41.54605        38.69315         3.24773
C         42.82816        40.74348         2.70783
C         41.56688        40.05153         2.92827
C         42.80983        42.09576         2.25420
C         41.57610        42.81932         2.12829
C         42.78921        44.81725         1.31937
C         41.55699        44.18575         1.76558
C         42.80573        46.12741         0.84376
C         41.66268        47.04417         1.16324
C         42.62640        48.54128        -0.67548
C         41.45813        48.18252         0.18028
C         42.60307        49.83955        -1.45500
C         41.47720        50.70389        -1.03869
C         42.80536        52.78240        -1.38340
C         41.78528        51.99812        -0.75104
C         42.73937        54.15931        -1.52210
C         41.39858        54.82593        -1.79728
C         42.67709        57.02106        -1.92469
C         41.47583        56.32373        -1.96611
C         42.66918        58.48051        -1.94931
C         41.52181        59.20863        -2.19740
C         42.75493        61.37184        -1.83920
C         41.48721        60.67086        -2.09499
C         42.79916        62.78706        -1.79660
C         41.57393        63.57433        -2.01420
C         42.75961        65.60802        -1.17578
C         41.56753        64.95314        -1.49827
C         42.75190        67.03502        -0.87353
C         41.55734        67.75072        -0.88934
C         42.78842        69.96369        -0.63750
C         41.54327        69.16475        -0.46231
C         42.77452        71.48522        -0.46337
C         41.53087        72.08071         0.17982
C         42.80748        74.29034         0.13041
C         41.47422        73.56640         0.19497
C         45.11855        33.71518         2.50457
C         43.93289        34.46979         2.83798
C         45.32104        36.42906         3.56843
C         43.98677        35.74669         3.29600
C         45.32243        37.89364         3.15599
C         44.08393        38.67094         3.33950
C         45.28188        40.66605         2.46896
C         44.05447        40.04916         2.82395
C         45.25486        42.01387         2.00356
C         44.03088        42.73000         1.90218
C         45.23506        44.64304         0.95679
C         44.03092        44.05849         1.36307
C         45.20587        45.82910         0.03892
C         43.97124        46.68490         0.20814
C         45.15146        48.34838        -1.25951
C         43.93909        47.89836        -0.43580
C         45.19175        49.84028        -1.53889
C         43.91135        50.50620        -1.81619
C         45.23541        52.73275        -1.85149
C         43.96190        52.02234        -1.86275
C         45.19746        54.16974        -1.85632
C         43.96123        54.88285        -1.79746
C         45.18864        57.02619        -1.76422
C         43.94273        56.30647        -1.81762
C         45.19662        58.43341        -1.64279
C         43.89376        59.15847        -1.37751
C         45.18890        61.32010        -1.47779
C         43.94874        60.64322        -1.63094
C         45.20480        62.73544        -1.39433
C         44.00064        63.47093        -1.46949
C         45.20202        65.55977        -0.79408
C         44.00488        64.89954        -1.20190
C         45.18499        66.97363        -0.45816
C         43.99760        67.69570        -0.56923
C         45.25278        69.85065        -0.02019
C         44.05476        69.17445        -0.53167
C         45.21339        71.24740         0.30418
C         44.03785        72.03672         0.14730
C         45.18818        74.02686         0.91592
C         44.02543        73.42048         0.44561
C         46.34051        34.30324         2.54464
C         47.65401        36.35108         2.70765
C         46.48919        35.69433         2.93164
C         47.80478        37.79825         3.09790
C         46.49795        38.53891         2.88198
C         47.75758        40.60224         2.30587
C         46.53239        39.95242         2.56007
C         47.70633        42.00738         1.99220
C         46.48002        42.67082         1.71401
C         47.71401        44.68884         0.96466
C         46.48655        44.00952         1.21519
C         47.69451        46.18621         0.73942
C         46.45788        46.67165         0.03147
C         47.68116        48.59600        -0.87407
C         46.44991        47.84846        -0.65673
C         47.66648        49.88300        -1.40800
C         46.38446        50.55275        -1.65529
C         47.65752        52.69664        -2.29766
C         46.40071        51.98087        -1.89567
C         47.66353        54.16848        -1.93621
C         46.44238        54.88264        -1.87558
C         47.67488        56.98747        -1.60172
C         46.43496        56.30410        -1.77391
C         47.66240        58.41419        -1.43930
C         46.42918        59.13741        -1.49595
C         47.65735        61.25966        -1.14942
C         46.42984        60.56810        -1.38235
C         47.67666        62.66799        -0.96848
C         46.50312        63.49735        -1.39928
C         47.60134        65.47439        -0.24202
C         46.42534        64.85832        -0.74910
C         47.58083        66.88614         0.14124
C         46.40089        67.64418        -0.05131
C         47.59438        69.70581         0.68564
C         46.40584        69.06602         0.20535
C         47.59560        71.12079         0.97239
C         46.40478        71.87506         0.79810
C         47.58383        73.92314         1.47942
C         46.39174        73.28384         1.08761
C         48.96091        38.46430         2.41544
C         50.17369        40.31684         1.41800
C         48.98937        39.80321         2.11786
C         50.62309        41.62000         1.54561
C         48.85966        42.81206         1.94076
C         50.27049        44.67942         1.07007
C         48.92654        44.05586         1.29367
C         50.24159        46.08830         0.46893
C         48.95991        46.73263         0.13277
C         50.17674        48.59020        -0.92455
C         48.93948        47.94123        -0.54787
C         50.16610        49.90953        -1.42284
C         48.90528        50.60837        -1.60715
C         50.12605        52.71418        -1.98899
C         48.91004        51.97344        -1.90504
C         50.14678        54.11044        -1.85915
C         48.89075        54.85196        -1.77182
C         50.11034        56.91131        -0.94218
C         48.89469        56.24683        -1.55332
C         50.13396        58.40576        -1.17288
C         48.90297        59.11105        -1.22390
C         50.10106        61.20971        -0.74074
C         48.88740        60.52659        -1.05293
C         50.07598        62.60868        -0.43865
C         48.85259        63.33323        -0.55050
C         49.99806        65.30500         0.42500
C         48.79719        64.72169        -0.17958
C         49.97166        66.74619         0.88566
C         48.74835        67.53906         0.63968
C         49.94042        69.57018         1.51314
C         48.75207        68.92553         0.90158
C         50.00508        71.05096         1.59186
C         48.79385        71.78076         1.39253
C         50.01410        73.86493         1.89228
C         48.79583        73.20361         1.60096
C         51.51770        42.41190         0.78198
C         52.61746        44.49523         0.25992
C         51.48117        43.84035         0.75937
C         52.64602        45.85977        -0.14649
C         51.44889        46.60992        -0.18557
C         52.63768        48.50260        -1.21274
C         51.42000        47.89553        -0.78098
C         52.62885        49.86314        -1.66717
C         51.39517        50.54264        -1.76478
C         52.67028        52.72019        -2.31664
C         51.36399        51.94689        -2.20077
C         52.59341        54.17230        -2.05115
C         51.39980        54.81491        -1.78072
C         52.54938        57.07644        -1.86512
C         51.49244        56.20198        -1.14170
C         52.62385        58.45243        -1.24656
C         51.34862        59.11623        -1.02325
C         52.58416        61.13508        -0.22754
C         51.32534        60.49654        -0.74381
C         52.55715        62.63517        -0.28168
C         51.31261        63.30197        -0.18068
C         52.50248        65.38802         0.32577
C         51.30101        64.67704         0.14990
C         52.46561        66.79058         0.68954
C         51.27206        67.43830         0.96879
C         52.52781        69.53349         1.68898
C         51.23813        68.79130         1.55129
C         52.50203        71.01545         1.89350
C         51.20624        71.72272         1.85172
C         52.47326        73.84624         2.09158
C         51.23392        73.16122         1.94885
C         53.84535        46.46267        -0.63322
C         55.13913        48.36704        -1.61937
C         53.85310        47.75859        -1.11564
C         55.11847        49.87824        -1.60918
C         53.88506        50.57305        -1.81323
C         55.12230        52.68661        -1.83243
C         53.91886        51.98611        -1.99057
C         55.17072        54.14485        -2.03740
C         53.85945        54.92382        -2.12143
C         55.08611        57.02476        -1.68309
C         53.89406        56.36732        -1.82883
C         55.08624        58.54260        -1.72570
C         53.81576        59.13525        -1.15977
C         55.03792        61.22463        -0.72184
C         53.85544        60.51636        -0.74848
C         55.02492        62.69176        -0.52925
C         53.75269        63.35902        -0.20575
C         54.99532        65.42053         0.42883
C         53.75398        64.73861         0.11994
C         54.92394        66.80756         0.81286
C         53.72664        67.48450         0.83342
C         54.96672        69.71298         0.96985
C         53.64087        68.99105         0.82298
C         54.95140        71.13509         1.38723
C         53.75177        71.78409         1.66960
C         54.95601        73.88796         2.01282
C         53.72803        73.19609         1.94094
C         56.30535        50.57398        -1.46660
C         57.53753        52.72326        -1.37093
C         56.33829        51.99858        -1.53029
C         57.57094        54.14720        -1.40078
C         56.37222        54.88568        -1.64528
C         57.57744        56.99041        -1.39433
C         56.35462        56.30005        -1.59311
C         57.61335        58.46618        -1.32943
C         56.33971        59.20484        -1.19089
C         57.54038        61.25684        -0.46428
C         56.32298        60.55214        -0.87478
C         57.53630        62.61706        -0.05905
C         56.31215        63.42679        -0.22371
C         57.46260        65.42884         0.81923
C         56.23650        64.77401         0.37612
C         57.43056        66.73367         1.26321
C         56.12700        67.46981         1.43335
C         57.50559        69.65559         1.36089
C         56.24051        68.94119         1.05793
C         57.45020        71.12648         1.42824
C         56.20165        71.81287         1.53874
C         57.42893        73.87501         2.08565
C         56.18943        73.20939         1.86677
C         58.77664        54.85715        -1.22424
C         60.04171        56.95174        -1.05541
C         58.79554        56.26466        -1.24087
C         60.15224        58.30719        -0.77245
C         58.90128        59.14486        -0.86557
C         59.77543        61.11865         0.41652
C         58.73316        60.49750        -0.27173
C         59.90868        62.52112         0.54731
C         58.70887        63.27941         0.39431
C         59.93521        65.25398         1.15771
C         58.72340        64.67088         0.77582
C         59.94458        66.65459         1.66805
C         58.62862        67.43722         1.87203
C         59.96517        69.71467         1.72443
C         58.66388        68.94864         1.52714
C         59.89973        71.13926         1.07876
C         58.64912        71.85155         1.54398
C         59.91041        73.97680         2.30356
C         58.64574        73.22273         1.91758
C         61.45832        58.89199        -0.72521
C         62.56810        61.15353        -0.27297
C         61.67977        60.11376        -0.05383
C         62.43904        62.48965         0.27994
C         61.19438        63.14952         0.67800
C         62.43142        65.27011         0.96044
C         61.19860        64.55298         0.96722
C         62.46425        66.69365         1.11048
C         61.24366        67.41404         1.58278
C         62.26515        69.37197         0.70940
C         61.15603        68.86607         1.29718
C         62.32976        71.53972         0.76368
C         61.15039        71.99613         1.29120
C         62.39859        74.00510         1.88108
C         61.19802        73.31887         1.86188
C         63.60913        63.24948         0.21241
C         64.88671        65.31162         0.49403
C         63.67168        64.62593         0.57381
C         64.99856        66.72966         0.96019
C         63.64775        67.37508         0.90530
C         64.81461        69.70644         0.90071
C         63.60281        68.83412         0.97431
C         64.77861        71.21575         0.90487
C         63.64691        72.01471         1.07385
C         64.87684        74.07934         1.54585
C         63.67348        73.40096         1.52647
C         66.07430        67.61345         0.35825
C         67.20260        69.79878         0.16658
C         66.06137        68.99577         0.47671
C         67.26808        71.16915         0.48547
C         66.09905        71.83070         1.11601
C         67.35657        74.04817         0.91468
C         66.14524        73.35882         1.36790
C         68.42283        71.93736         0.25774
C         68.44247        73.34172         0.45370
O         54.61854        54.57860        -3.33143
O         38.45518        65.60279        -2.98410
O         31.76782        65.48040        -2.46267
O         43.52818        38.52511         4.71710
O         39.12244        68.87682        -2.13763
O         38.25464        46.79659         2.46873
O         31.56509        73.34959        -0.42367
O         40.92753        63.47005        -3.36319
O         66.36954        72.36572         2.44199
O         58.50978        59.13671        -2.29243
O         49.99891        42.35656         2.58321
O         50.46840        45.84302         1.93395
O         32.40081        62.28782        -3.42154
O         62.25889        70.47401        -0.13372
O         33.33890        69.23251         1.23871
O         41.12279        52.64166         0.29836
O         60.79567        66.86194         2.86890
O         38.57683        55.08640        -2.75342
O         43.78473        51.22421        -3.09157
O         60.75622        60.32429         0.99344
O         36.42382        56.69168         0.07254
O         42.32621        48.59722        -2.14213
O         37.75346        50.50467        -1.27334
O         50.38695        68.88037         2.73235
O         29.07989        71.98347        -0.86657
O         55.76801        63.38910        -1.59685
O         35.26943        57.41534        -3.41005
O         40.93565        69.15087         0.90130
O         55.75386        69.39085        -0.25120
O         30.38880        59.04544        -3.47088
O         43.51338        69.65895        -1.86594
O         49.80721        65.65420         1.85647
O         37.69732        62.52497        -3.71928
O         52.77008        70.03747         3.01016
O         40.11678        66.02736         0.14706
O         29.24231        69.36356        -1.24912
O         40.31910        57.61151        -3.70032
O         40.91039        71.57379         1.40505
O         51.98879        52.21972        -3.50547
O         64.27700        69.29138         2.24180
O         42.68401        72.04941        -1.81123
H         43.23329        71.46784        -2.39078
O         38.21332        55.04142         0.96534
H         37.71274        55.85412         1.21667
O         38.89077        63.15457        -0.30140
H         39.38660        63.82356         0.22071
O         28.87788        70.48572         2.47749
H         28.30968        69.94563         3.06794
O         35.04944        53.63467         1.69580
H         35.28602        52.81108         2.18926
O         45.10011        45.23458        -1.29970
H         45.04280        45.98552        -1.94949
O         39.13560        72.31250        -1.71901
H         39.91369        72.88851        -1.87854
O         42.03724        47.71584         2.42868
H         42.20803        47.01536         3.09413
O         36.59956        51.32087         2.13211
H         37.39749        51.85745         2.32715
O         45.53333        36.44512         5.01929
H         44.88089        37.09033         5.38486
O         47.66300        52.66426        -3.77505
H         46.78454        52.97535        -4.08249
O         48.04823        37.83299         4.54166
H         47.30524        37.33258         4.96261
O         59.91706        74.13035         3.73601
H         59.99317        73.23869         4.13481
O         31.32674        62.33753         0.76723
H         30.72910        61.85581         1.37791
O         41.62685        35.97076         2.81322
H         41.91270        36.03711         1.87926
O         46.76050        63.80008        -2.83631
H         46.76416        62.94410        -3.31652
O         55.05378        58.88104        -3.16098
H         55.96357        58.77299        -3.51404
O         65.34325        66.68114         2.40502
H         65.13060        67.57970         2.76140
O         53.16134        69.31605        -0.52459
H         53.93911        69.22098        -1.12244
O         42.78773        75.45468         0.95713
H         42.61341        75.17376         1.87869
O         43.70867        59.04104         0.09227
H         44.46785        59.49625         0.51603
O         59.72067        70.90711        -0.33881
H         59.61596        71.77195        -0.78555
O         32.68182        58.01587        -4.03616
H         31.77187        58.20684        -4.37574
O         56.26467        47.85621        -0.90103
H         56.13678        48.05042         0.04986
O         52.59888        60.82238         1.22389
H         51.78209        61.20219         1.61346
O         41.09856        54.27574        -3.11956
H         40.20100        54.59827        -3.39283
O         32.58711        54.90845         1.09932
H         33.40034        54.55449         1.54186
O         39.83544        49.46268        -2.09699
H         38.85646        49.47771        -2.22084
O         52.09598        55.95691         0.15105
H         51.38342        56.00190         0.83003
O         55.78649        67.47337         2.85838
H         56.62846        67.46821         3.37753
O         44.97659        47.69699        -2.56585
H         44.07273        47.95102        -2.88120
O         31.61737        67.23014         0.99898
H         32.31313        67.82634         1.38756
O         34.13165        72.67737        -1.42984
H         33.36203        73.27848        -1.54845
O         60.15668        69.92278         3.14602
H         60.27123        69.04308         3.56736
O         39.34665        60.68825        -4.28673
H         39.10122        61.57724        -4.63575
O         52.14475        57.22495        -3.24251
H         52.85241        57.71889        -3.71096
O         36.68362        68.67086         1.37603
H         36.48037        69.44928         1.93705
O         47.65640        46.74113         2.10666
H         48.54258        46.55682         2.50067
O         49.81214        56.79969         0.50520
H         48.97128        57.27855         0.66859
O         58.39062        67.42364         3.32330
H         59.24968        67.19511         3.75534
H         23.36020        74.40605         3.62288
H         25.70416        74.54806         2.79688
H         28.12771        74.54986         2.48105
H         30.49424        74.27611         2.64495
H         33.12466        74.72363         2.20766
H         35.40529        74.84678         1.67701
H         37.80150        75.00953         1.25373
H         40.25042        75.27695         0.54958
H         42.94247        74.65586        -0.92670
H         45.18627        75.10589         1.12888
H         47.58074        75.00775         1.66206
H         50.01403        74.95823         2.01435
H         52.45676        74.93570         2.24581
H         54.95810        74.96693         2.22766
H         57.41839        74.92688         2.40748
H         59.86223        75.01438         1.87965
H         62.41014        75.04847         2.22974
H         64.90496        75.16087         1.74816
H         67.37186        75.14796         0.91854
H         22.72653        68.47656         3.56099
H         21.51794        70.53425         4.18444
H         21.43418        73.01479         4.37054
H         25.10093        64.34508         2.22341
H         23.92654        66.42072         2.93900
H         27.45863        60.27814         0.43607
H         26.30586        62.24941         1.37314
H         29.31588        56.42806        -1.76816
H         28.25731        58.45438        -0.94993
H         31.90336        52.49850        -0.65736
H         30.53599        54.63100        -0.82888
H         34.40475        48.37769         0.37995
H         33.18638        50.42690        -0.21515
H         37.03486        43.99721         1.06685
H         35.48227        46.34093         0.63693
H         39.39814        40.22809         2.83927
H         38.17802        42.23528         2.17492
H         42.40335        36.15544         4.70434
H         40.59823        38.13641         3.20277
H         45.00732        32.66889         2.18899
H         42.95165        33.98807         2.70960
H         47.24252        33.75235         2.24020
H         48.51429        35.81747         2.27352
H         49.85440        37.85285         2.21502
H         50.71744        39.61423         0.76875
H         52.30532        41.91601         0.19393
H         53.52998        43.90003         0.10450
H         54.78668        45.89488        -0.59811
H         55.27778        48.04356        -2.69073
H         57.23794        50.01730        -1.29328
H         58.47578        52.17567        -1.19948
H         59.71450        54.30522        -1.06829
H         60.95739        56.34183        -1.05204
H         62.28199        58.37355        -1.23866
H         63.41975        60.98434        -0.94893
H         64.53287        62.76451        -0.13749
H         65.79280        64.76123         0.19759
H         67.01275        67.13080         0.04125
H         68.09742        69.30654        -0.24426
H         69.31414        71.44734        -0.16014
H         69.34981        73.89036         0.16186
