         620
 CSIRO Nanostructure Databank - Neutral Graphene Oxide Data Set
C         23.10826        27.35957        -1.72506
C         23.10189        28.69892        -1.93046
C         23.10699        31.78228        -1.87505
C         23.10964        33.10732        -1.56744
C         23.13259        36.02777        -1.01861
C         23.14365        37.39984        -0.79150
C         23.19484        40.36032        -1.07249
C         23.15910        41.75906        -0.99845
C         23.13663        44.71981        -0.89281
C         23.14795        46.09928        -0.86102
C         25.57234        24.51873        -1.49025
C         24.37083        25.22655        -1.58430
C         25.56005        27.35293        -1.37263
C         24.34811        26.63419        -1.55020
C         25.57310        28.78406        -1.45507
C         24.36063        29.46003        -1.95031
C         25.57019        31.69319        -1.44245
C         24.35714        31.01859        -1.93549
C         25.54207        33.12622        -1.36298
C         24.33953        33.84424        -1.39376
C         25.53440        36.04263        -1.25713
C         24.32575        35.30043        -1.23959
C         25.52871        37.44742        -1.13049
C         24.33437        38.15729        -0.83263
C         25.34373        40.35573         0.03372
C         24.28090        39.62013        -0.58531
C         25.39682        41.78578        -0.05639
C         24.25394        42.50361        -0.52726
C         25.45403        44.65204        -0.12074
C         24.27960        43.96173        -0.52060
C         25.48072        46.08190        -0.09272
C         24.30983        46.80889        -0.45901
C         25.46251        48.90484        -0.01425
C         24.33210        48.23047        -0.41611
C         28.12346        23.00464        -1.18287
C         28.05756        24.45665        -1.13277
C         26.79887        25.17649        -1.32280
C         27.98117        27.32558        -1.00843
C         26.79919        26.62042        -1.23177
C         27.91100        28.75522        -0.66351
C         26.71439        29.52570        -1.08945
C         27.88904        31.70796        -0.56234
C         26.71504        30.95483        -1.08296
C         28.02935        33.13529        -0.85562
C         26.83987        33.83723        -1.36275
C         28.02995        36.01551        -0.78305
C         26.84328        35.34454        -1.37120
C         27.98457        37.39074        -0.65776
C         26.85660        38.11554        -1.33444
C         27.73767        40.32777         0.51172
C         26.48162        39.69681         0.59570
C         27.78568        41.75031         0.51201
C         26.58771        42.48334         0.31378
C         27.81295        44.61338         0.59301
C         26.63547        43.92676         0.27561
C         27.85988        46.04171         0.60507
C         26.65966        46.78942         0.30194
C         27.82145        48.92484         0.81882
C         26.64893        48.21003         0.36205
C         27.88908        50.31404         0.89281
C         30.57225        22.97220        -0.95619
C         29.30374        22.31600        -1.15675
C         30.47415        24.41752        -0.60895
C         29.22711        25.15460        -0.89836
C         30.49666        27.36559        -0.54370
C         29.30805        26.63978        -1.14620
C         30.48589        28.76727        -0.41265
C         29.18389        29.46778        -0.28420
C         30.43863        31.69705        -0.31872
C         29.17918        30.96404        -0.20166
C         30.44630        33.09320        -0.30501
C         29.20376        33.81255        -0.53660
C         30.36915        35.91663        -0.00145
C         29.21184        35.25888        -0.44064
C         30.28246        37.31372         0.42954
C         28.97817        38.07499         0.17880
C         30.26486        40.28869         0.53713
C         28.98193        39.57572         0.25350
C         30.22333        41.72904         0.88601
C         29.03343        42.42139         0.78864
C         30.31154        44.59174         0.96340
C         28.99506        43.87547         1.17645
C         30.31908        46.01975         1.02199
C         29.05776        46.71095         0.93797
C         30.34150        48.90102         1.40580
C         29.00883        48.15087         1.21189
C         30.32659        50.36033         1.23863
C         29.09909        51.00616         1.10469
C         33.18344        20.34023        -1.46829
C         31.96510        20.92279        -1.30171
C         33.07074        23.10997        -0.90414
C         31.80524        22.32769        -0.99998
C         33.02473        24.56450        -0.62117
C         31.71323        25.21255        -0.37016
C         32.93350        27.37974        -0.19095
C         31.71768        26.69188        -0.41024
C         32.93639        28.79738        -0.17315
C         31.69701        29.47750        -0.29896
C         32.99841        31.69859        -0.25521
C         31.68854        30.94442        -0.45864
C         32.91532        33.13508         0.06407
C         31.68144        33.81818        -0.08677
C         32.79468        35.94289         0.52331
C         31.63094        35.23644         0.14052
C         32.75144        37.38052         0.75013
C         31.52254        38.05126         0.67929
C         32.74933        40.27753         1.02754
C         31.45403        39.49233         0.95027
C         32.67928        41.72874         0.80644
C         31.49440        42.42739         0.92530
C         32.76021        44.58274         0.76780
C         31.50880        43.88268         0.87794
C         32.79436        45.99792         0.92697
C         31.55927        46.71380         1.08303
C         32.81110        48.82833         1.21546
C         31.61009        48.15467         1.20941
C         32.82822        50.28450         1.44364
C         31.58441        51.06286         1.29760
C         32.89593        53.12592         1.14494
C         31.66530        52.44883         1.26594
C         35.76312        18.78092        -0.90016
C         35.74630        20.25272        -0.85912
C         34.45218        21.04786        -1.21825
C         35.45554        23.05659        -0.14027
C         34.37003        22.41737        -0.69210
C         35.31605        24.43567         0.48479
C         34.20416        25.26638        -0.08471
C         35.37636        27.36472         0.38638
C         34.16974        26.64061         0.04801
C         35.37094        28.78074         0.39708
C         34.16897        29.51820         0.09682
C         35.35796        31.64154         0.53061
C         34.18730        30.92274         0.14439
C         35.32012        33.06920         0.63750
C         34.09587        33.80957         0.45307
C         35.21543        35.93975         0.99224
C         34.05279        35.24525         0.65726
C         35.22564        37.40440         1.36362
C         33.96652        38.11622         0.95532
C         35.21514        40.21695         0.65761
C         34.00477        39.52414         0.87757
C         35.17507        41.63744         0.27193
C         33.89318        42.42162         0.35935
C         35.19618        44.55267         0.34865
C         33.96987        43.88413         0.50529
C         35.23077        45.98090         0.52173
C         34.04930        46.66818         0.87031
C         35.33371        48.85784         0.77457
C         34.13683        48.09942         1.32965
C         35.36148        50.24827         0.83634
C         34.16384        51.01572         1.27170
C         35.33796        53.15332         0.69522
C         34.10712        52.46080         1.01672
C         35.35482        54.54795         0.55947
C         37.90290        18.68992         0.28009
C         36.80040        18.06103        -0.39375
C         37.76246        20.10939         0.62821
C         36.72302        20.93874        -0.00790
C         37.76214        23.04175         0.80719
C         36.66831        22.32599         0.19390
C         37.78897        24.46804         0.83254
C         36.60516        25.20612         0.58779
C         37.80865        27.34072         0.84745
C         36.59045        26.62478         0.61269
C         37.79068        28.77610         0.90567
C         36.57849        29.49758         0.69366
C         37.77605        31.63972         1.08849
C         36.57182        30.92569         0.78519
C         37.72939        33.06553         1.16844
C         36.51886        33.74992         0.98894
C         37.75461        36.00192         1.17817
C         36.46334        35.20867         1.21858
C         37.71578        37.44037         0.82635
C         36.49296        38.12557         0.92120
C         37.66927        40.19040         0.27383
C         36.46754        39.51406         0.62900
C         37.61940        41.61097        -0.11918
C         36.42122        42.40559         0.17749
C         37.66930        44.49843        -0.11455
C         36.42442        43.79292         0.11496
C         37.60725        45.96670        -0.26717
C         36.44965        46.71312         0.26078
C         37.73912        48.84243         0.11865
C         36.50418        48.12108         0.36236
C         37.75859        50.26789         0.24056
C         36.55805        50.98105         0.52731
C         37.77375        53.12896         0.31635
C         36.55536        52.41524         0.53344
C         37.75949        54.55104         0.26280
C         36.54999        55.23437         0.34340
C         40.29736        15.89441         0.84459
C         39.12867        16.56694         0.63017
C         40.27390        18.73674         1.00906
C         39.06629        18.00337         0.67476
C         40.27392        20.13927         1.16339
C         38.98146        20.82899         1.21556
C         40.27643        23.06322         1.38440
C         38.93596        22.32012         1.29161
C         40.26961        24.50405         1.12412
C         39.03618        25.18189         1.00851
C         40.25966        27.29842         1.18163
C         39.02658        26.61115         0.99615
C         40.21020        28.73292         1.45308
C         38.98347        29.49474         1.20512
C         40.26992        31.60665         1.33866
C         39.00365        30.90722         1.26898
C         40.26255        33.06827         1.55948
C         38.96707        33.83279         1.48828
C         40.16802        35.92995         0.73595
C         39.02671        35.26705         1.07530
C         40.09994        37.27487         0.02419
C         38.89923        38.09719         0.42600
C         40.15365        40.21029        -0.05621
C         38.89956        39.49716         0.18555
C         40.17855        41.60325        -0.18861
C         38.91828        42.35452        -0.35106
C         40.14416        44.52894        -0.38320
C         38.88652        43.83104        -0.25828
C         40.18136        45.93533        -0.47643
C         38.92301        46.71509        -0.50647
C         40.16889        48.86534        -0.31916
C         38.95061        48.16557        -0.20487
C         40.21045        50.26989        -0.16982
C         38.99060        50.98786         0.06982
C         40.23610        53.12545        -0.00897
C         38.99560        52.40424         0.12486
C         40.27116        54.52412         0.09384
C         39.01309        55.34435        -0.00278
C         40.29316        57.22566         1.00681
C         39.10604        56.61590         0.81309
C         42.75985        15.91685         1.09732
C         41.53080        16.60646         1.01032
C         42.75278        18.74568         1.10676
C         41.51961        18.02741         1.05827
C         42.74953        20.17683         1.10235
C         41.50910        20.88267         1.17955
C         42.74313        23.03223         1.09514
C         41.52806        22.30669         1.22451
C         42.74639        24.47101         1.07175
C         41.51376        25.19311         1.09981
C         42.74589        27.34900         1.04617
C         41.49806        26.62369         1.15703
C         42.73588        28.74247         0.97156
C         41.55961        29.49997         1.35851
C         42.73695        31.66050         0.97081
C         41.48641        30.95436         1.17351
C         42.76339        33.08799         1.04858
C         41.54195        33.82460         1.38651
C         42.69592        35.90969         0.42353
C         41.48084        35.30559         0.96071
C         42.65285        37.26137        -0.25026
C         41.39519        38.06518         0.02309
C         42.65772        40.18241        -0.27589
C         41.39926        39.44553        -0.09112
C         42.66681        41.61584        -0.35971
C         41.39922        42.35872        -0.30130
C         42.63583        44.47778        -0.80755
C         41.37186        43.75161        -0.41502
C         42.62967        45.96827        -0.56993
C         41.42565        46.65685        -0.53909
C         42.68902        48.86586        -0.54746
C         41.39290        48.14739        -0.84611
C         42.70984        50.25460        -0.46066
C         41.45319        50.99507        -0.31456
C         42.67493        53.16327        -0.50864
C         41.45038        52.38891        -0.23755
C         42.73694        54.57364        -0.10188
C         41.51582        55.23352         0.18312
C         42.75980        57.28025         0.64188
C         41.53410        56.59997         0.58503
C         43.95495        16.61207         1.14508
C         45.22979        18.75685         1.02155
C         43.98465        18.02759         1.10823
C         45.22293        20.17705         0.93942
C         43.98359        20.89697         1.02163
C         45.21820        23.03990         0.87197
C         43.98227        22.31991         1.00502
C         45.22821        24.47528         0.86585
C         43.98906        25.18958         0.96632
C         45.21977        27.33017         0.77792
C         43.98362        26.61050         0.90694
C         45.19374        28.75808         0.61416
C         43.89575        29.47814         0.36557
C         45.15413        31.66423         0.63130
C         43.92434        30.95448         0.71700
C         45.18530        33.09673         0.67440
C         43.94598        33.81064         0.83309
C         45.15016        35.98682         0.54696
C         43.88562        35.23409         0.57897
C         45.13914        37.39484         0.13253
C         43.92224        38.05214        -0.04209
C         45.15825        40.13285        -0.46591
C         43.87275        39.45776        -0.26133
C         45.15527        41.65159        -0.56352
C         43.87442        42.34145        -0.40879
C         45.08746        44.49309        -0.24159
C         43.89995        43.77612        -0.38408
C         45.06396        45.94586        -0.30798
C         43.89734        46.65071        -0.53783
C         45.22488        48.83248        -0.41875
C         43.96643        48.12452        -0.86297
C         45.21693        50.26726        -0.42151
C         43.96999        50.95360        -0.46385
C         45.24854        53.13611        -0.35935
C         43.99981        52.40450        -0.60870
C         45.23319        54.54523        -0.22230
C         43.96790        55.26579        -0.03824
C         43.94958        56.63201         0.32444
C         47.65866        18.75694         0.82868
C         46.47076        18.07322         0.96677
C         47.69295        20.16881         0.70922
C         46.45114        20.89542         0.75149
C         47.63224        23.05665         0.29568
C         46.42212        22.31590         0.68011
C         47.70573        24.50388         0.51083
C         46.46760        25.20110         0.75907
C         47.72037        27.38098         0.45778
C         46.45179        26.61812         0.77303
C         47.61334        28.82964         0.91083
C         46.38554        29.50508         0.64246
C         47.61636        31.65622         0.49525
C         46.38349        30.94803         0.58573
C         47.63859        33.08937         0.34201
C         46.41579        33.77934         0.51042
C         47.70048        35.96005         0.26155
C         46.45729        35.24535         0.60294
C         47.67695        37.35754         0.16923
C         46.40497        38.08754         0.12007
C         47.63794        40.23504         0.23007
C         46.40637        39.44958        -0.10789
C         47.61767        41.67473        -0.21666
C         46.42367        42.37065        -0.33840
C         47.57186        44.50700        -0.11446
C         46.38054        43.81394        -0.21633
C         47.55888        45.92580         0.26635
C         46.28173        46.68367         0.08974
C         47.68835        48.77260        -0.08424
C         46.41523        48.13451        -0.14056
C         47.69894        50.15304        -0.71128
C         46.45158        50.96972        -0.40217
C         47.69546        53.13415        -0.29855
C         46.47265        52.40219        -0.34652
C         47.66863        54.53009        -0.24317
C         46.46498        55.22752        -0.17442
C         50.18976        20.22523         0.85027
C         48.95062        20.84821         0.60596
C         50.22566        23.00938         0.31910
C         48.97231        22.25794         0.22579
C         50.19815        24.42309         0.27877
C         48.95947        25.17063         0.41429
C         50.28871        27.20718         0.52760
C         49.02921        26.59754         0.61104
C         50.56238        28.57729         0.90584
C         48.69198        29.64173         1.24211
C         50.11723        31.54757         0.35839
C         48.81889        30.97379         0.78334
C         50.12295        33.03660         0.00519
C         48.87289        33.79468         0.19704
C         50.14760        35.91357        -0.08983
C         48.90995        35.21426         0.13451
C         50.13280        37.33767        -0.17898
C         48.90797        38.06363        -0.03841
C         50.10849        40.20667        -0.16803
C         48.91496        39.48997        -0.06716
C         50.06745        41.65598        -0.17437
C         48.87280        42.35933        -0.25068
C         50.05606        44.52254         0.09160
C         48.86217        43.85086        -0.55224
C         49.90427        45.75579         0.66170
C         48.82967        46.66989         0.37901
C         50.21070        48.82798         0.20525
C         48.92232        48.07239         0.19988
C         50.23161        50.19027        -0.10922
C         49.00424        50.91589        -0.51962
C         50.21823        53.07261         0.11843
C         48.99370        52.42277        -0.37555
C         51.39519        20.89861         0.68050
C         52.70663        22.98029         0.19910
C         51.44974        22.28756         0.40482
C         52.69047        24.39420         0.02742
C         51.45427        25.09959         0.14344
C         52.66578        27.23874        -0.15729
C         51.47797        26.51089         0.13611
C         52.59327        28.72915        -0.45408
C         51.50734        29.37561         0.36162
C         52.68460        31.62277         0.18510
C         51.45756        30.86143         0.56616
C         52.62692        33.07578        -0.13694
C         51.41463        33.76897        -0.07112
C         52.60581        35.90793        -0.37735
C         51.38288        35.19701        -0.18095
C         52.57036        37.32862        -0.50543
C         51.36143        38.04812        -0.39269
C         52.57029        40.19679        -0.35168
C         51.36293        39.49823        -0.35137
C         52.60170        41.62496        -0.01010
C         51.35142        42.39425        -0.25751
C         52.72068        44.57647         0.06871
C         51.38599        43.88104        -0.05990
C         52.78345        46.04453         0.04646
C         51.79806        46.79370         0.62955
C         52.82065        48.95354         0.00838
C         51.56188        48.24171         0.47928
C         52.70132        50.35850        -0.37910
C         51.45333        50.97544        -0.18586
C         51.39245        52.40388         0.03463
C         55.12617        23.01289        -0.10742
C         53.95017        22.31536         0.13364
C         55.14111        24.41735        -0.26673
C         53.90718        25.11968        -0.17353
C         55.11974        27.29839        -0.40376
C         53.88125        26.55389        -0.29209
C         55.11598        28.70349        -0.34066
C         53.90800        29.45309        -0.25244
C         55.09890        31.60858        -0.41582
C         53.90772        30.85355        -0.16372
C         55.06239        33.01949        -0.56641
C         53.85714        33.76477        -0.41648
C         55.07115        35.93221        -0.65470
C         53.84650        35.20103        -0.51788
C         55.10548        37.33350        -0.67464
C         53.82227        38.03407        -0.80797
C         55.12471        40.26079        -0.52593
C         53.83087        39.56208        -0.71205
C         55.14169        41.64717        -0.38433
C         53.89767        42.38356        -0.06946
C         55.05485        44.48436        -0.88194
C         53.86108        43.85686        -0.19905
C         55.09799        45.98641        -0.76576
C         53.98193        46.72643        -0.44239
C         55.12461        48.89734        -0.85307
C         54.00880        48.18252        -0.42467
C         55.06394        50.32600        -0.96529
C         53.88875        51.02527        -0.79363
C         57.60734        24.47382        -0.72402
C         56.37408        25.15610        -0.50052
C         57.59846        27.29359        -0.66497
C         56.36365        26.57033        -0.50759
C         57.63695        28.70969        -0.57278
C         56.40534        29.46687        -0.15074
C         57.63199        31.59741        -0.70855
C         56.33156        30.84639        -0.81604
C         57.61689        33.00098        -0.75724
C         56.32098        33.70210        -0.93621
C         57.60600        35.93222        -0.72341
C         56.33106        35.21710        -0.92233
C         57.58730        37.35445        -0.62743
C         56.33654        38.07691        -0.66809
C         57.59160        40.21939        -0.50628
C         56.34545        39.50367        -0.60013
C         57.60832        41.65233        -0.47818
C         56.37405        42.38652        -0.47244
C         57.59758        44.50731        -0.69155
C         56.36948        43.78825        -0.59736
C         57.61210        45.91869        -0.93826
C         56.34952        46.64765        -1.16718
C         57.68953        48.81570        -1.04958
C         56.37356        48.17391        -1.22321
C         58.77995        25.15820        -0.94375
C         60.01500        27.30607        -1.09392
C         58.80896        26.58139        -0.90820
C         60.02744        28.68389        -1.02284
C         58.83994        29.41283        -0.74114
C         60.04644        31.62273        -0.60088
C         58.84862        30.88298        -0.66369
C         60.03239        33.01146        -0.60250
C         58.82590        33.73966        -0.69619
C         60.02281        35.93970        -0.55112
C         58.81488        35.20700        -0.67437
C         60.02411        37.31784        -0.48713
C         58.81902        38.06288        -0.52104
C         60.03482        40.24242        -0.39776
C         58.82198        39.50614        -0.47123
C         60.04664        41.61959        -0.40974
C         58.83852        42.36619        -0.47171
C         60.04769        44.55320        -0.60897
C         58.83846        43.80666        -0.56575
C         60.04228        45.92166        -0.77627
C         58.82222        46.62970        -0.95109
C         58.82677        48.07966        -1.00404
O         39.47611        22.75484         2.58136
O         53.30480        41.94404         1.23346
O         29.80804        40.09677        -0.84926
O         39.54932        33.46919         2.77815
O         38.12627        41.84595        -1.48500
O         38.02658        46.39318        -1.61639
O         52.28686        31.39101         1.63580
O         28.26746        31.43419         0.83307
O         31.99426        39.88820         2.24079
O         33.66050        50.65375         2.61291
O         37.94963        20.27492         2.08434
O         27.07489        34.60567        -2.60886
O         50.00325        31.99764        -1.03511
O         56.26444        47.37348        -2.44673
O         45.22770        40.81907        -1.77973
O         29.20624        37.47137         1.48705
O         46.68964        46.23637         1.43684
O         55.80159        30.84440        -2.12593
O         24.55414        30.24951        -3.16913
O         51.42886        43.24756        -1.45437
O         37.13098        35.66361         2.47253
O         35.52221        20.84510        -2.18616
O         30.98267        24.68169         0.78517
O         28.33645        28.90310         0.76963
O         40.96588        29.10489         2.63967
O         33.18634        24.10691        -2.01749
O         53.75725        38.87224        -2.01054
O         45.85596        35.78968         1.83985
O         34.33665        41.88704        -0.94435
O         32.50902        31.37771        -1.60357
O         52.43833        48.89518         1.46252
O         29.54746        48.45774         2.55047
O         48.19726        22.59282        -0.97284
O         50.92987        46.17303         1.51720
O         49.23742        51.77940        -1.69006
O         49.76455        29.09348         1.92942
O         56.25592        34.46098        -2.18943
O         43.27613        52.88547        -1.81383
O         41.70151        34.87934         2.36026
O         27.00783        39.12744        -1.99823
O         34.39823        48.01705         2.77926
H         34.26229        48.93315         3.13117
O         44.03356        48.13832        -2.36028
H         44.42710        48.99804        -2.62824
O         47.59108        49.87871        -2.15346
H         48.00476        50.65184        -2.60715
O         34.89308        24.14942         1.87351
H         34.93417        24.98862         2.37997
O         48.91396        44.00635        -1.99988
H         49.79630        43.65671        -2.27960
O         29.61269        26.73606        -2.60882
H         28.89331        26.27369        -3.09158
O         56.53956        29.74452         1.27975
H         56.60814        28.88673         1.74900
O         54.81176        44.20094        -2.30923
H         53.97537        44.64434        -2.56729
O         52.27731        28.86755        -1.87472
H         53.11338        28.80779        -2.38397
O         41.27129        48.21195        -2.31105
H         42.17563        48.03757        -2.67735
O         39.84285        36.90637        -1.38087
H         39.89866        37.72407        -1.91987
O         38.91624        55.78107        -1.40772
H         39.75692        56.23512        -1.63022
O         47.58927        40.34438         1.71264
H         47.68588        39.43812         2.07837
O         26.33810        38.46544         1.14287
H         27.16988        38.16405         1.56839
O         43.67467        29.43801        -1.10134
H         44.51596        29.70646        -1.52989
O         35.20952        37.46968         2.83540
H         35.94950        36.88908         3.14629
O         28.78286        43.87563         2.63764
H         28.77969        44.81254         2.93063
O         42.65858        44.37334        -2.28881
H         41.86428        44.84151        -2.62682
O         47.66521        27.54268        -1.02157
H         47.67208        26.64314        -1.41543
O         42.63905        36.96548        -1.69564
H         42.71645        37.81910        -2.17334
H         22.16873        26.78863        -1.75686
H         22.16196        29.21963        -2.15974
H         22.16342        31.28236        -2.13342
H         22.15302        33.64674        -1.55073
H         22.16853        35.50321        -0.97561
H         22.19404        37.90271        -0.55887
H         22.36301        39.83946        -1.56791
H         22.27027        42.27173        -1.39081
H         22.21736        44.20567        -1.20416
H         22.24924        46.66436        -1.14744
H         25.53589        23.42213        -1.53762
H         23.42672        24.67816        -1.71159
H         25.44127        50.00225         0.01721
H         23.42887        48.78823        -0.70262
H         27.19330        22.43734        -1.32276
H         26.99380        50.91859         0.69447
H         29.28055        21.22468        -1.28658
H         29.06389        52.10351         1.06751
H         33.23193        19.29110        -1.79225
H         31.06510        20.31361        -1.46829
H         32.85413        54.21822         1.04595
H         30.74823        53.05233         1.24930
H         34.97102        18.26713        -1.46152
H         34.42736        55.12871         0.63648
H         36.80846        16.97148        -0.53606
H         36.52415        56.32647         0.23124
H         40.31665        14.79512         0.83982
H         38.20499        15.99726         0.46068
H         40.34941        58.19932         1.51658
H         38.17978        57.10408         1.14908
H         42.76167        14.81750         1.09529
H         42.77907        58.33467         0.95227
H         44.89034        16.03944         1.18596
H         44.88637        57.19984         0.39255
H         48.59341        18.18335         0.77979
H         46.50348        16.97830         1.02928
H         48.60826        55.09821        -0.24760
H         46.49717        56.32210        -0.10755
H         50.22353        19.16708         1.14285
H         50.19184        54.11558         0.46054
H         52.32845        20.33528         0.81290
H         52.33039        52.92003         0.28461
H         56.06357        22.44326        -0.15840
H         54.00175        21.22543         0.26010
H         55.95860        50.86734        -1.30235
H         53.86173        52.10255        -1.00925
H         57.62598        23.37618        -0.74669
H         57.74334        49.90933        -0.94786
H         59.71323        24.60863        -1.13363
H         60.94427        26.75449        -1.29721
H         60.97246        29.21930        -1.18708
H         61.01449        31.10624        -0.54478
H         60.99469        33.53668        -0.54637
H         60.98686        35.41680        -0.51328
H         60.98968        37.83324        -0.40590
H         60.99620        39.71489        -0.35158
H         61.01465        42.13618        -0.37490
H         61.01290        44.04081        -0.50265
H         60.98991        46.47907        -0.78552
H         59.79861        48.58595        -0.90394
