         615
 CSIRO Nanostructure Databank - Neutral Graphene Oxide Data Set
C         23.29934        69.56178         2.75097
C         23.30856        70.95543         2.99008
C         22.13675        71.65038         3.39763
C         23.35791        73.74604         3.50751
C         22.17403        73.02191         3.64718
C         25.68141        65.37863         1.63102
C         25.66617        66.78314         1.81303
C         24.48234        67.47240         2.16350
C         25.69153        69.61840         2.18401
C         24.47380        68.87446         2.36513
C         25.71209        71.02354         2.41292
C         24.52752        71.69267         2.83055
C         25.77328        73.80851         2.96218
C         24.55575        73.09969         3.09722
C         28.02599        61.20457         0.36896
C         28.01515        62.61515         0.58205
C         26.86700        63.28556         1.03260
C         28.08117        65.42730         1.11719
C         26.86286        64.69211         1.26354
C         28.09628        66.84542         1.33217
C         26.88674        67.52932         1.64291
C         28.09445        69.68779         1.60958
C         26.89072        68.94480         1.81073
C         28.10647        71.11272         1.78436
C         26.92281        71.76118         2.23455
C         28.19274        73.85260         2.44821
C         26.95265        73.16196         2.53624
C         30.38680        57.01505        -0.82245
C         30.30628        58.40838        -0.72605
C         29.18729        59.11030        -0.21954
C         30.35688        61.29779        -0.43309
C         29.16244        60.52515        -0.09889
C         30.37218        62.73584        -0.19608
C         29.22218        63.37266         0.34299
C         30.48688        65.47754         0.53333
C         29.26823        64.76012         0.66609
C         30.61618        66.84556         1.14718
C         29.30540        67.58038         1.21619
C         30.50595        69.73246         1.07246
C         29.30176        68.98462         1.32095
C         30.44417        71.14936         1.04199
C         29.29423        71.86894         1.52949
C         30.60103        74.01115         2.02832
C         29.35095        73.25514         1.93955
C         32.67488        52.71965        -1.89313
C         32.74848        54.21434        -1.64827
C         31.59650        54.91087        -1.29755
C         32.78482        57.02267        -1.52332
C         31.57883        56.32735        -1.23009
C         32.74199        58.49289        -1.58868
C         31.44157        59.21005        -1.22487
C         32.70568        61.38033        -1.26870
C         31.47573        60.64821        -0.90605
C         32.71608        62.86988        -1.04698
C         31.53233        63.50011        -0.44824
C         32.85587        65.60197        -0.18748
C         31.61993        64.85687        -0.02080
C         32.89527        67.01423         0.09024
C         31.75321        67.66139         0.58576
C         32.89907        69.84411         0.41747
C         31.71704        69.07819         0.68852
C         32.85127        71.27044         0.38749
C         31.55817        71.82607         0.48661
C         33.02231        74.22712         1.15250
C         31.63537        73.82976         1.14738
C         35.18052        48.63702        -0.67979
C         35.20894        49.98045        -0.98280
C         33.96992        50.73654        -1.12389
C         35.22396        52.62508        -2.13604
C         33.96139        52.00839        -1.58418
C         35.19962        54.15909        -2.22216
C         33.96298        54.90928        -1.88376
C         35.25299        57.05981        -1.96508
C         33.99266        56.32679        -1.78864
C         35.21924        58.55029        -1.96981
C         33.99603        59.23142        -1.55820
C         35.25590        61.43684        -1.30644
C         34.00947        60.63370        -1.03964
C         35.21705        62.82432        -1.11926
C         34.01129        63.56098        -0.93708
C         35.22582        65.73606        -0.93758
C         34.01242        64.94447        -0.65406
C         35.28780        67.15483        -0.57118
C         34.10718        67.78005        -0.12551
C         35.31609        69.94948        -0.08449
C         34.11797        69.18770         0.09722
C         35.28313        71.39580         0.03302
C         34.05111        72.07268         0.24608
C         35.29269        74.30975         0.27686
C         34.04169        73.50335         0.56553
C         37.68923        44.36323         0.21484
C         37.67722        45.74339        -0.04608
C         36.45113        46.42537        -0.23059
C         37.71231        48.60019        -0.42291
C         36.38948        47.87694        -0.29907
C         37.72271        49.90718        -1.19287
C         36.45802        50.71395        -1.14680
C         37.71231        52.83723        -1.47073
C         36.48559        52.05611        -1.49568
C         37.74952        54.20115        -1.74614
C         36.50455        54.91593        -2.14853
C         37.75982        57.08714        -2.14639
C         36.45540        56.39387        -2.01529
C         37.81328        58.60669        -2.07488
C         36.50945        59.35153        -1.97038
C         37.72039        61.35965        -1.13268
C         36.51477        60.74148        -1.42127
C         37.76556        62.78158        -0.74862
C         36.47795        63.53853        -0.83547
C         37.79654        65.72685        -0.91626
C         36.53088        64.99874        -1.09101
C         37.76272        67.14684        -0.93065
C         36.51088        67.86753        -0.67856
C         37.74196        70.05295        -0.67239
C         36.51986        69.25795        -0.39194
C         37.78318        71.43260        -0.09962
C         36.55221        72.11105         0.03825
C         37.76002        74.23509         0.25735
C         36.57458        73.53077         0.24169
C         40.13303        40.00777         0.43468
C         40.07929        41.41701         0.23009
C         38.93402        42.16407         0.44295
C         40.17090        44.35804         0.14491
C         38.94017        43.66146         0.65563
C         40.19061        45.69664        -0.16384
C         38.95027        46.46726        -0.18646
C         40.19503        48.53907        -0.78899
C         38.96891        47.81852        -0.47993
C         40.20942        49.90495        -0.91139
C         38.95101        50.68321        -0.80032
C         40.25876        52.83520        -1.13205
C         38.94947        52.15941        -0.98900
C         40.22478        54.30585        -1.15944
C         38.96797        54.98838        -1.58526
C         40.27268        57.12167        -1.95851
C         38.99430        56.34916        -1.80853
C         40.28315        58.59305        -1.71254
C         39.05657        59.24651        -1.60569
C         40.28557        61.35856        -0.82771
C         38.98430        60.60354        -1.06400
C         40.22187        62.84977        -0.79532
C         39.04164        63.54075        -0.81308
C         40.22171        65.74873        -0.79584
C         39.01564        65.01362        -0.82040
C         40.21876        67.14843        -0.99833
C         38.98412        67.84659        -1.07845
C         40.30409        69.97794        -1.48941
C         38.95936        69.32226        -1.23856
C         40.25335        71.47114         0.40487
C         39.00378        72.12640         0.17264
C         40.23942        74.25236         0.27117
C         39.01701        73.56316         0.22189
C         42.59545        35.85155         1.42360
C         42.58158        37.24081         1.18390
C         41.36825        37.92712         0.91833
C         42.62963        39.97749         0.49040
C         41.35562        39.30099         0.61006
C         42.63487        41.32428        -0.10885
C         41.34500        42.09769        -0.15677
C         42.70495        44.28938         0.19902
C         41.40662        43.58220        -0.11068
C         42.66893        45.71430        -0.28323
C         41.46466        46.35083        -0.46449
C         42.63474        48.51561        -0.27599
C         41.49190        47.77502        -0.98278
C         42.67517        49.99860        -0.62518
C         41.47135        50.62716        -1.31315
C         42.71712        52.83990        -1.28927
C         41.44676        52.14454        -1.14858
C         42.79068        54.22416        -1.37824
C         41.54605        55.01175        -1.28515
C         42.85676        57.13853        -1.65491
C         41.57673        56.40495        -1.81224
C         42.81559        58.62105        -2.00544
C         41.52420        59.29071        -1.54245
C         42.76552        61.38446        -1.15095
C         41.54819        60.66995        -1.21498
C         42.76176        62.79540        -0.71024
C         41.48896        63.55026        -0.50677
C         42.69934        65.68232        -1.17892
C         41.52066        65.07800        -0.39291
C         42.72803        67.17291        -0.92020
C         41.49955        67.87733        -0.96214
C         42.70751        70.00184        -0.62081
C         41.51489        69.28857        -0.93874
C         42.70743        71.42785        -0.24538
C         41.48266        72.11858         0.12038
C         42.69568        74.26331         0.08178
C         41.47005        73.56348         0.12371
C         44.98904        33.11376         2.21382
C         43.81368        33.76112         1.90785
C         45.01533        35.92314         1.86366
C         43.79331        35.17687         1.72021
C         45.00938        37.32333         1.62416
C         43.82326        37.97322         1.24152
C         45.10737        40.06471         0.73867
C         43.82702        39.36223         0.84451
C         45.16854        41.38468         0.24156
C         43.93870        42.06894        -0.19133
C         45.16681        44.21658        -0.25169
C         43.95744        43.54522        -0.20333
C         45.19062        45.66470        -0.34156
C         43.94862        46.40752        -0.40324
C         45.19740        48.51537        -0.56453
C         43.95665        47.79284        -0.48689
C         45.21818        49.88682        -0.78969
C         43.97643        50.67881        -0.83945
C         45.28206        52.81712        -1.43193
C         43.96325        52.05748        -1.42781
C         45.25669        54.28173        -1.31636
C         44.03856        54.95721        -1.43076
C         45.35525        57.08375        -1.74389
C         44.01174        56.42461        -1.50264
C         45.34488        58.61212        -1.59644
C         44.06784        59.35033        -1.57599
C         45.24732        61.42663        -0.85290
C         44.03447        60.70248        -1.24101
C         45.22017        62.86344        -0.65744
C         44.01430        63.57503        -0.77741
C         45.20173        65.69571        -0.74222
C         44.00260        64.98549        -0.85235
C         45.25691        67.17344        -1.04154
C         43.93384        67.87652        -0.81130
C         45.21231        70.00385        -0.70230
C         43.92481        69.27724        -0.64194
C         45.19188        71.50396        -0.56817
C         43.90050        72.15473        -0.26851
C         45.15757        74.27662         0.01015
C         43.92670        73.58001        -0.02803
C         46.18919        33.84810         2.37544
C         47.50649        35.96743         2.47431
C         46.21363        35.22409         2.21565
C         47.52890        37.36514         1.90365
C         46.23734        38.15121         1.93901
C         47.54700        40.05224         0.90437
C         46.30551        39.43004         1.14303
C         47.59316        41.36184         0.37107
C         46.40100        42.06602         0.09653
C         47.63810        44.17845        -0.27782
C         46.42855        43.48681        -0.22494
C         47.66601        45.61938        -0.23139
C         46.41842        46.34354        -0.33543
C         47.65205        48.46498        -0.23794
C         46.44738        47.78079        -0.42180
C         47.66726        49.90782        -0.20000
C         46.50001        50.59780        -0.80064
C         47.55081        52.83536        -0.24310
C         46.53377        52.07476        -1.03518
C         47.65347        54.29351        -0.46000
C         46.48176        54.99492        -0.95987
C         47.58638        57.08641        -0.35294
C         46.47446        56.37568        -0.99805
C         47.61696        58.57948        -0.33687
C         46.54414        59.33466        -1.04208
C         47.66064        61.41402        -0.25259
C         46.44995        60.75814        -0.68212
C         47.64052        62.86441        -0.13445
C         46.41044        63.57912        -0.38087
C         47.57282        65.73301        -0.04187
C         46.39549        65.00150        -0.41332
C         47.61106        67.14113        -0.04854
C         46.44211        67.88492        -0.41067
C         47.66176        70.00436        -0.09424
C         46.45892        69.27400        -0.38842
C         47.65748        71.47172        -0.07328
C         46.44455        72.19200        -0.20426
C         47.63942        74.31716         0.09029
C         46.42079        73.61191        -0.02832
C         48.70837        37.95952         1.58976
C         50.01645        39.96688         0.98715
C         48.79601        39.34053         1.15536
C         50.12542        41.32587         0.53430
C         48.88905        41.97210         0.03346
C         50.24984        44.18886        -0.37979
C         48.91642        43.43426        -0.35381
C         50.13805        45.61885         0.10173
C         48.87151        46.30407        -0.00068
C         50.02174        48.44783         0.40338
C         48.87277        47.75359         0.07919
C         50.12139        49.94221         0.22693
C         48.77847        50.61534         0.18249
C         49.91011        52.84397         0.78151
C         48.67908        52.07891         0.39473
C         50.02685        54.24759         0.34684
C         48.84724        54.94951        -0.15147
C         50.02165        57.10562         0.13670
C         48.86457        56.39045        -0.14799
C         50.02215        58.53038         0.26687
C         48.87547        59.27709        -0.01412
C         49.99171        61.43236         0.71175
C         48.82814        60.70275         0.05520
C         50.11174        62.83637         0.13599
C         48.78541        63.55038         0.22068
C         50.03491        65.74300         0.75066
C         48.70368        64.98388         0.48333
C         50.06496        67.14283         0.37456
C         48.85471        67.84495         0.17503
C         50.09253        69.98370         0.42892
C         48.83806        69.27916         0.12582
C         50.10936        71.48637         0.37827
C         48.86012        72.19776         0.08789
C         50.12131        74.32817         0.18548
C         48.88890        73.63659         0.08575
C         51.30316        42.04503         0.59944
C         52.53200        44.16202         0.61122
C         51.38836        43.45263         0.31886
C         52.56151        45.60839         0.56200
C         51.28579        46.29369         0.45317
C         52.48947        48.50560         0.78934
C         51.21144        47.70926         0.96804
C         52.46551        49.88100         0.91634
C         51.13835        50.55214         1.22683
C         52.45603        52.80664         1.03789
C         51.17347        52.08503         1.14740
C         52.43820        54.19816         0.90411
C         51.23355        54.90977         0.54814
C         52.54093        57.10587         0.43385
C         51.31575        56.33762         0.02092
C         52.53679        58.48304         0.56382
C         51.24200        59.20730         0.85096
C         52.49200        61.40164         0.72667
C         51.30436        60.69826         0.61130
C         52.52059        62.84514         0.83543
C         51.30716        63.59139         0.66981
C         52.50035        65.75311         1.20638
C         51.28717        64.96144         0.80342
C         52.67936        66.99351         0.30205
C         51.37683        67.78786         0.13966
C         52.61521        70.03604         0.52669
C         51.38655        69.28867         0.17097
C         52.64885        71.41276         0.44840
C         51.41140        72.14201         0.06608
C         52.70572        74.32239         0.22138
C         51.40962        73.66011         0.00836
C         53.73077        46.33642         0.69425
C         54.92150        48.49466         0.50233
C         53.75178        47.78523         0.64740
C         54.88115        49.96824         0.19699
C         53.66998        50.66373         0.78897
C         54.98471        52.74373         1.06825
C         53.68063        52.03807         0.96904
C         55.00626        54.23531         1.18842
C         53.68020        55.01145         1.24872
C         55.02546        57.04555         0.88115
C         53.80645        56.28972         0.40725
C         55.01444        58.52706         0.79996
C         53.74569        59.25003         0.60215
C         54.96942        61.36183         0.86216
C         53.75984        60.66732         0.71952
C         54.97960        62.75872         1.33330
C         53.73708        63.55257         1.14207
C         55.01157        65.70007         1.45744
C         53.76445        64.93454         1.21709
C         55.03633        67.16221         1.15384
C         53.85857        67.80989         0.83109
C         55.09211        70.05573         1.20280
C         53.76530        69.26273         1.00453
C         55.06618        71.49314         0.86822
C         53.88520        72.15913         0.59614
C         55.14930        74.30919         0.39573
C         53.88307        73.61860         0.40399
C         56.18244        50.69729         0.39814
C         57.46192        52.79052         0.65090
C         56.23225        52.03506         0.67754
C         57.50215        54.18179         0.70621
C         56.27640        54.94514         0.84823
C         57.54167        57.06215         0.58780
C         56.30741        56.31851         0.74610
C         57.55444        58.44336         0.48997
C         56.28705        59.20254         0.45367
C         57.53559        61.38222         0.82583
C         56.24933        60.70782         0.56776
C         57.56466        62.75701         1.16940
C         56.30471        63.45514         1.55021
C         57.60127        65.70640         1.48236
C         56.30356        64.96355         1.65081
C         57.57577        67.14262         1.12711
C         56.31028        67.87576         1.16537
C         57.54458        69.97737         0.67879
C         56.31528        69.26507         1.04614
C         57.63011        71.44816         0.92747
C         56.34056        72.22939         0.95444
C         57.62870        74.27715         0.37950
C         56.36160        73.65727         0.57789
C         58.73386        54.91860         0.55266
C         60.01078        57.03682         0.28728
C         58.77886        56.30281         0.50053
C         60.09204        58.40386         0.19227
C         58.79900        59.23343         0.13853
C         59.90961        61.34959         1.03058
C         58.73109        60.63130         0.79094
C         59.99161        62.74652         0.90256
C         58.78654        63.45565         1.06739
C         60.06853        65.62354         0.71717
C         58.86545        64.92796         1.22657
C         60.04359        67.04301         0.67967
C         58.79330        67.75891         0.84397
C         60.11617        69.95294         0.78608
C         58.81896        69.20827         0.55091
C         60.05411        71.40856         0.36242
C         58.87758        72.13055         0.51694
C         60.07295        74.21370         0.02894
C         58.83390        73.55825         0.32542
C         61.33917        59.03174        -0.27785
C         62.65063        61.27695        -0.23674
C         61.71814        60.26848         0.18508
C         62.49846        62.65375         0.01855
C         61.14779        63.38677         0.13838
C         62.39155        65.59743        -0.00671
C         61.22349        64.88968         0.36770
C         62.38528        67.00276        -0.08593
C         61.22829        67.75632         0.26003
C         62.46721        69.88431        -0.15926
C         61.27329        69.18139         0.20991
C         62.46786        71.34631        -0.20366
C         61.27293        72.07571        -0.00200
C         62.49452        74.27387        -0.50824
C         61.24540        73.51129        -0.13567
C         63.63941        63.46359        -0.21425
C         64.84719        65.58659        -0.34831
C         63.63454        64.86390        -0.23060
C         64.87165        66.98139        -0.47299
C         63.56072        67.69012        -0.73098
C         64.87102        69.86703        -0.94723
C         63.61935        69.17256        -0.48682
C         64.91795        71.32033        -0.56011
C         63.71474        72.04020        -0.41124
C         64.98243        74.12824        -0.36476
C         63.76646        73.47408        -0.37885
C         66.07375        67.70240        -0.45085
C         67.33496        69.79909        -0.47021
C         66.13141        69.10904        -0.57423
C         67.39123        71.22594        -0.49345
C         66.16395        71.98013        -0.49660
C         67.46567        74.05302        -0.29878
C         66.21016        73.40368        -0.36820
C         68.61479        71.91548        -0.40660
C         68.64486        73.31301        -0.32543
O         43.24104        50.76306         0.47517
O         32.56138        62.25901        -2.40297
O         39.59461        60.71810         0.28734
O         51.43296        72.77509        -1.23066
O         46.40365        59.15859        -2.49412
O         48.92289        42.39036        -1.38835
O         38.79705        51.54038         0.36255
O         31.77920        58.97386        -2.63384
O         51.41367        68.58445        -1.11748
O         44.68742        52.27668        -2.65824
O         47.08840        57.85609         0.83525
O         40.41243        70.92289        -2.25336
O         55.56994        65.44948         2.81006
O         47.49754        52.46646         1.18776
O         50.09848        70.76640         1.66368
O         54.24047        69.69715         2.31911
O         37.01021        63.14376         0.47648
O         56.16151        60.02163        -0.77210
O         35.78897        65.41951        -2.26999
O         58.08934        69.60628        -0.65060
O         35.89293        54.56298        -3.45463
O         37.97529        69.91871        -2.13263
O         41.00542        56.62424        -3.15723
O         54.97015        57.82513         2.11312
O         35.75033        59.22631        -3.20655
O         57.08401        71.89622         2.19638
O         31.31579        73.09611        -0.02476
O         50.30647        52.66097         2.18638
O         41.27110        42.89231        -1.39459
O         46.99770        51.20140        -2.09758
O         55.60518        62.84445         2.67811
O         49.11237        65.40468         1.83300
O         43.35393        41.40225        -1.38604
O         40.86573        54.93493         0.01552
O         58.51908        65.38266         2.58420
O         37.93527        57.90934        -3.35079
O         37.07206        48.58297         0.86467
O         55.14987        53.40513         2.39197
O         42.14334        62.92989         0.66229
O         61.05234        60.65301         1.36618
O         42.75426        44.32797         1.66889
H         43.41356        45.00559         1.93074
O         52.27451        66.29049         2.53573
H         52.27397        65.54939         3.17740
O         45.28878        70.85494        -1.90409
O         50.64092        44.28617        -1.78048
H         50.35006        43.44547        -2.20509
O         41.68155        50.40550        -2.73724
H         40.81410        50.41441        -3.19246
O         42.42668        65.46739        -2.58601
H         43.16127        65.86702        -3.09964
O         60.64712        63.30517        -1.25144
H         60.65204        62.36051        -1.51963
O         33.99689        60.45810         0.45161
H         34.92200        60.32613         0.75339
O         45.62308        56.79950        -3.14892
H         46.14719        57.55659        -3.50055
O         37.91427        49.55241        -2.60443
H         37.05909        49.66084        -3.07334
O         50.72924        50.19480        -1.09089
H         50.11945        49.84224        -1.77496
O         38.97788        43.81366         2.13864
H         39.10788        44.76679         2.33515
O         64.82254        69.85822        -2.42045
H         64.50259        68.95814        -2.68244
O         54.09647        55.85296        -0.95705
H         54.30818        56.64465        -1.49668
O         48.63072        35.20419         2.02972
H         48.54934        35.07300         1.06310
O         31.00308        66.60328         2.56399
H         30.28546        66.07193         2.97098
O         41.71418        65.42453         0.99730
H         41.98984        64.59682         1.46181
O         45.48486        67.25946        -2.49355
H         45.56724        68.21088        -2.72450
O         60.29339        69.95411         2.23976
H         61.15078        70.38396         2.44127
O         62.57514        75.50382         0.22264
H         62.62679        75.29133         1.17677
O         35.28770        52.12596        -3.51177
H         35.72812        52.83640        -4.04098
O         35.42002        75.43141         1.15896
H         35.74414        75.10696         2.02383
O         31.60162        52.10701        -1.18894
H         30.76032        52.33797        -1.62930
O         63.34318        67.54731        -2.20308
H         62.42338        67.83720        -2.38777
O         50.73861        50.20854         2.56841
H         50.27406        51.00036         2.93977
O         49.67104        61.53340         2.12082
H         49.85179        60.64986         2.52414
O         42.79832        58.68417        -3.46957
H         42.13203        58.01920        -3.77577
O         42.35105        48.42404         1.14124
H         42.77723        49.20473         1.56631
O         51.04971        59.08703         2.31670
H         51.93144        59.15560         2.74393
O         54.64212        50.04615        -1.26771
H         53.79448        49.58395        -1.44725
O         53.48789        55.44040         2.60920
H         53.81471        54.71464         3.18838
O         46.06232        38.57990         3.34121
H         45.81932        37.78815         3.86619
O         50.98100        47.54779         2.40759
H         50.86895        48.45717         2.78536
O         40.20166        70.24691         1.01153
H         41.10337        69.94387         1.24486
O         50.37339        62.64712        -1.28951
H         50.53314        63.52409        -1.69672
O         41.80451        47.72432        -2.39285
H         41.14092        47.15841        -2.83834
O         58.72126        59.54050        -1.29518
H         57.78995        59.83335        -1.47372
O         53.03661        66.50091        -1.00786
H         52.80684        67.20974        -1.65200
O         51.46146        56.16364        -1.44142
H         52.33358        55.72145        -1.58803
H         23.37300        74.82578         3.71341
H         25.79975        74.88436         3.19137
H         28.23337        74.90237         2.77533
H         30.71053        74.71277         2.86845
H         33.28767        75.22603         1.53970
H         35.13865        74.74440        -0.75375
H         37.73565        75.33272         0.31691
H         40.24241        75.34704         0.36762
H         42.69108        75.36097         0.15000
H         45.14088        75.36975         0.13098
H         47.62242        75.41353         0.17152
H         50.11162        75.41418         0.36038
H         52.74083        75.42154         0.17542
H         55.14835        75.38208         0.15032
H         57.65387        75.35766         0.17164
H         60.08549        75.30828        -0.08012
H         62.40100        74.56689        -1.59353
H         65.00209        75.22789        -0.34623
H         67.50239        75.14896        -0.21971
H         22.36386        68.99812         2.88317
H         21.19679        71.09312         3.51816
H         21.25717        73.53962         3.96268
H         24.74636        64.81216         1.75362
H         23.54950        66.90505         2.29946
H         27.11504        60.63090         0.59735
H         25.93779        62.71801         1.19006
H         29.52048        56.40708        -0.52147
H         28.29920        58.53949         0.09181
H         32.49787        52.58912        -3.00714
H         30.66812        54.35799        -1.09239
H         34.20654        48.13017        -0.59621
H         33.02354        50.25577        -0.83583
H         36.72967        43.83041         0.30107
H         35.51993        45.84409        -0.30684
H         39.19148        39.46670         0.61624
H         38.00810        41.63765         0.72541
H         41.65520        35.28336         1.36472
H         40.42058        37.36905         0.94870
H         45.00268        32.02324         2.34813
H         42.87696        33.19664         1.79497
H         47.11997        33.32330         2.63345
H         47.61861        36.06301         3.59434
H         49.64035        37.37783         1.67163
H         50.94102        39.42433         1.23728
H         52.20170        41.55203         1.00398
H         53.42550        43.63328         0.97946
H         54.69482        45.80866         0.75224
H         55.87938        47.96183         0.40176
H         57.10777        50.16289         0.13145
H         58.39915        52.23721         0.48478
H         59.66965        54.34681         0.45675
H         60.93441        56.44477         0.18897
H         61.91333        58.52240        -1.06743
H         63.58394        60.95808        -0.73037
H         64.60124        62.95279        -0.37974
H         65.79872        65.03405        -0.30991
H         67.01357        67.15066        -0.28687
H         68.26795        69.23623        -0.30936
H         69.55539        71.34615        -0.39750
H         69.61293        73.83026        -0.26728
