         268
 CSIRO Nanostructure Databank - Neutral Graphene Oxide Data Set
C        -11.21649         0.44401        -0.02622
C        -10.00133         1.22190        -0.17087
C         -8.74159         0.52063         0.00924
C         -7.53533         1.36540         0.10001
C         -6.22952         0.76982         0.56509
C         -4.93665         1.64997         0.48888
C         -3.66171         0.82102         0.32848
C         -2.46630         1.48639        -0.25336
C         -1.23394         0.72017        -0.60416
C         -0.00144         1.46583        -0.33174
C          1.18600         0.70820         0.14235
C          2.53762         1.31960        -0.08408
C          3.75082         0.61153         0.44451
C          5.00368         1.38566         0.87327
C          6.24564         0.56488         0.54555
C          7.49262         1.28131         0.14825
C          8.79388         0.55494         0.24873
C         10.02347         1.26296        -0.19659
C         11.06242         0.43156        -0.86009
C        -10.04277         2.58470        -0.34919
C         -8.86260         3.41083        -0.79845
C         -7.53344         2.63346        -0.70042
C         -6.26394         3.40027        -0.90078
C         -4.94400         2.86314        -0.47592
C         -3.78984         3.55033        -0.79977
C         -2.49405         2.92103        -0.60676
C         -1.27820         3.56124        -0.64965
C         -0.04209         2.83007        -0.35838
C          1.23768         3.54082        -0.11920
C          2.51214         2.80089        -0.52059
C          3.73330         3.57460        -0.03886
C          4.99487         2.87287         0.36618
C          6.25091         3.55167        -0.15425
C          7.51978         2.75994        -0.17831
C          8.83098         3.47318        -0.17470
C          9.97085         2.75260        -0.32478
C         -8.66632         4.72694        -0.06333
C         -7.51091         5.43775        -0.19673
C         -6.41725         4.90689        -1.13560
C         -5.08794         5.68235        -1.05934
C         -3.80856         4.92668        -1.47018
C         -2.49220         5.75581        -1.24853
C         -1.22589         5.02962        -0.89104
C         -0.13588         5.75004        -0.09609
C          1.22842         5.02847        -0.09063
C          2.48265         5.76891        -0.47568
C          3.79110         5.03466        -0.45206
C          5.01628         5.83165         0.00129
C          6.33757         5.10185        -0.50951
C          7.56705         5.76153         0.09617
C          8.88604         5.00216        -0.01320
C         -7.34259         6.69301         0.50984
C         -6.19089         7.42983         0.49715
C         -5.02163         6.97410        -0.30066
C         -3.69254         7.62907        -0.04152
C         -2.59378         7.29572        -1.03691
C         -1.26139         7.98910        -0.66199
C         -0.00280         7.22069        -0.44696
C          1.20464         7.90445         0.17622
C          2.48091         7.27797        -0.37089
C          3.75866         8.05023        -0.39140
C          5.08255         7.30535        -0.38366
C          6.33706         7.94757         0.12902
C          7.51658         7.07321         0.43532
C         -6.10068         8.72158         1.15526
C         -4.97440         9.47281         1.15880
C         -3.68880         8.96946         0.61855
C         -2.64234         9.98243         0.16789
C         -1.27750         9.35998        -0.05769
C         -0.13916        10.00131         0.30324
C          1.22848         9.47771        -0.11419
C          2.46789         9.90023         0.61578
C          3.79810         9.64437        -0.02337
C          5.01080         9.95306         0.82767
C          6.16533         9.26066         0.79836
C        -11.16754        -0.89377         0.21369
C         -9.91695        -1.59230         0.40831
C         -8.68569        -0.81237         0.38626
C         -7.40957        -1.44428         0.68669
C         -6.22569        -0.72769         0.71593
C         -4.91487        -1.44555         0.78647
C         -3.68415        -0.68505         0.42309
C         -2.61554        -1.38467        -0.36290
C         -1.26560        -0.74528        -0.44567
C         -0.22464        -1.52286         0.35325
C          1.07848        -0.73411         0.55207
C          2.33683        -1.52806         0.89097
C          3.65319        -0.80215         1.00495
C          4.96676        -1.56333         1.16932
C          6.29802        -0.85392         1.10486
C          7.69340        -1.57884         1.08489
C          8.61764        -0.92779         0.04208
C          9.69610        -1.66763        -0.68568
C         10.90559        -0.88975        -1.08301
C         -9.91078        -2.96214         0.60230
C         -8.69954        -3.70113         0.80758
C         -7.43906        -2.90538         1.14165
C         -6.15841        -3.68429         0.76659
C         -4.87007        -2.95434         0.62648
C         -3.60165        -3.68265         0.13096
C         -2.61777        -2.83777        -0.64571
C         -1.27600        -3.52082        -0.87359
C         -0.03812        -2.89247        -0.29817
C          1.00645        -3.79915         0.34662
C          2.30403        -3.05147         0.78649
C          3.61307        -3.78868         0.80097
C          4.93644        -3.06827         1.02954
C          6.24714        -3.75727         0.82064
C          7.63547        -3.11871         0.90142
C          8.70890        -3.77452         0.06260
C          9.77415        -3.13512        -0.46893
C         -8.67414        -5.07203         0.92137
C         -7.35293        -5.78411         1.15251
C         -6.37925        -5.06485         0.16969
C         -5.08592        -5.81212        -0.19995
C         -3.83401        -5.04396        -0.52036
C         -2.54684        -5.80358        -0.77597
C         -1.31295        -5.00125        -1.27203
C          0.05464        -5.71326        -1.09349
C          1.25254        -5.09097        -0.44583
C          2.36618        -6.01101         0.07240
C          3.68367        -5.25496         0.41693
C          5.02589        -5.89405         0.26564
C          6.33262        -5.11218         0.09192
C          7.53208        -5.89628         0.63490
C          8.66628        -4.96942         0.99458
C         -7.32886        -7.27639         0.94822
C         -6.16006        -7.93827         0.64646
C         -4.96055        -7.24350         0.18682
C         -3.73175        -7.88031         0.22820
C         -2.50076        -7.22979        -0.31664
C         -1.17859        -7.82987         0.20764
C         -0.07515        -7.20969        -1.33397
C          1.48886        -8.36378        -1.10318
C          2.58770        -7.28332        -0.78679
C          3.88669        -7.99794        -0.62481
C          5.16180        -7.25653        -0.32197
C          6.44252        -7.99063        -0.09510
C          7.56626        -7.24694         0.55666
C         -6.04865        -9.37262         0.83858
C         -4.84358       -10.00596         0.81068
C         -3.61478        -9.29167         0.54626
C         -2.39466        -9.96560         0.50637
C         -1.12668        -9.33705         0.25480
C          0.06071       -10.04563         0.24590
C          1.35498        -9.47426        -0.07432
C          2.55256       -10.09629         0.17332
C          3.87964        -9.36272         0.07888
C          5.16096       -10.12185        -0.21032
C          6.34776        -9.48038        -0.18669
O          1.37131         4.25046         1.15601
O         -0.30194         7.72352        -1.76707
O          2.83832        -1.03712         2.17316
O         -3.21357         7.75448         1.32176
O         -2.75403        -6.91529        -1.70878
O         -2.82170        -4.03494         1.30599
H         -3.44063        -4.06682         2.07631
O          5.64499        -1.07979         2.37258
O         -3.09602        10.53446        -1.07799
H         -3.13650         9.80307        -1.74105
O          6.70926         2.91554        -1.38505
O         -7.57440        -2.92899         2.54887
O         -1.04005        -0.17319        -1.75839
O         -7.13081         1.45776         1.49804
O          3.48079        -7.46218        -1.92346
O         -5.23231        -3.62921         1.88374
O         -6.94011        -5.58135         2.51753
H         -7.13883        -4.62995         2.76978
O          6.63264         0.57717        -0.83430
O          3.43565         0.57984        -0.98191
O         -4.62361         3.60858        -3.28730
H         -5.54828         3.97318        -3.36027
O          8.20795        -3.97337         2.02488
O          2.79260        -3.65379         2.01016
O          1.51788        -8.83495        -2.27390
O         -1.47609         5.44977        -2.25562
O          6.00970         7.83163        -1.32198
O          4.12043         3.52924         1.36777
O          4.38101        -5.93323         1.54634
O         -6.86884         5.08684        -2.50275
O          8.42821        -1.27145        -1.34691
O         -2.61822         1.33403         1.22496
O          1.10515        -5.05093        -1.88329
O          5.63799        -3.75920         2.11720
O         -3.83042         4.76232        -2.94988
H         -6.70972         6.03567        -2.72282
O          2.51588         2.80013        -1.95135
H          3.20196         2.16825        -2.26436
O         -1.48511        -4.97724        -2.71947
H         -0.86573        -4.29169        -3.06447
O          5.02004         5.91790         1.42722
H          4.71253         5.06503         1.82614
O         -5.27503         6.95251        -1.75584
O         -2.95904         7.89124        -2.29760
H         -2.35400         7.51838        -2.97741
O         -0.28244        -2.84763        -1.72003
O          0.92344         0.33175         1.53566
O          4.04195        -8.88099         1.47584
H          4.06207        -9.66537         2.06502
O         -3.10965        -1.92251        -1.64634
O          1.87355        -6.50965         1.33146
H          2.65114        -6.82134         1.85519
O          3.00468         7.87257        -1.59476
O         -4.76366        -5.34495        -1.58306
O         -6.83113         2.54943        -1.97263
O          6.38761         5.25448        -1.85621
O          3.15212         5.33683        -1.69924
O          6.10804        -7.35496        -1.40433
O         -3.92895        -1.06465         1.80588
O          1.36643         9.76253        -1.50628
H          0.73848         9.18644        -2.00903
O         -0.65025        -7.17696         1.15069
O          6.51349        -4.84261        -1.24725
O          9.76585         0.92850         1.24894
O         -9.16788         3.70217        -2.17912
H         -8.33488         4.01323        -2.61254
O          5.00755         1.44197         2.30349
H          4.23813         1.96814         2.61157
O         -7.13896        -4.88875        -1.04944
H         -6.50199        -4.90195        -1.80314
O          3.98343        10.30172        -1.25967
H          3.18182        10.13209        -1.81192
O          9.66944         5.32128         1.13870
H         10.48607         4.78181         1.12904
O          0.34820        -4.21138         1.56464
H          0.83376        -4.99601         1.92897
O          1.17267         7.73096         1.59571
H          0.44132         7.10310         1.83125
O         -0.61036        -7.45424        -2.47845
H         -0.90654        -6.62482        -2.95365
O         -4.86820         2.31944         1.76612
H         -3.95809         2.18720         2.12512
O         -0.83238        -1.71877         1.63629
H         -0.40863        -2.48933         2.08403
O         -0.62205         5.76323         1.27506
H         -0.21308         4.98322         1.73147
O          8.28954        -1.29879         2.35053
H          7.66776        -1.60439         3.04715
H         11.71896        -1.45053        -1.56958
H         11.98318         0.93328        -1.19596
H         10.94161         3.27580        -0.37830
H          9.40828         5.40614        -0.93478
H          8.42314         7.57203         0.81410
H          7.01184         9.61745         1.40623
H          4.97301        10.89197         1.40135
H          2.42036         9.80761         1.71511
H         -0.20928        10.99240         0.77836
H         -2.56604        10.82411         0.89979
H         -4.98157        10.47636         1.60905
H         -7.01802         9.11249         1.62006
H         -8.19935         7.05147         1.10115
H         -9.47869         5.12641         0.56416
H        -11.02419         3.08123        -0.39920
H        -12.18226         0.95588        -0.14508
H        -12.09798        -1.47652         0.28243
H        -10.86600        -3.51038         0.59426
H         -9.59306        -5.65213         0.73710
H         -8.19404        -7.86325         1.29621
H         -6.96303        -9.93556         1.07653
H         -4.78459       -11.08782         0.99995
H         -2.39750       -11.05333         0.68263
H          0.02717       -11.12228         0.48709
H          2.56832       -11.02405         0.77250
H          5.12482       -11.21325        -0.34962
H          7.28121       -10.04764        -0.32905
H          8.45726        -7.81222         0.87486
H          9.61850        -5.47189         1.27936
H         10.69072        -3.67724        -0.74440
