         762
 CSIRO Nanostructure Databank - Neutral Graphene Oxide Data Set
C         23.36097        25.03310         3.49690
C         22.19193        25.83230         3.71050
C         22.88053        27.44469         1.97150
C         21.97825        27.00030         3.04290
C         22.85983        28.86223         1.51207
C         21.65211        29.63231         1.65945
C         22.67008        31.61222         0.59602
C         21.56151        30.93442         1.27857
C         22.70113        33.10158         0.60270
C         21.55135        33.85047         0.60388
C         22.72568        36.01108         0.48070
C         21.55852        35.27542         0.52149
C         22.74759        37.45538         0.27387
C         21.55190        38.20218         0.17806
C         22.77432        40.31223         0.03178
C         21.56289        39.58215         0.05638
C         22.76601        41.77307        -0.17069
C         21.53856        42.53591        -0.18002
C         22.70024        44.67385        -0.55143
C         21.51732        43.90322        -0.33012
C         22.70725        46.06989        -0.74625
C         21.51928        46.81455        -1.00476
C         22.78346        48.89135        -1.29400
C         21.56077        48.16944        -1.26045
C         25.77687        23.34384         2.86044
C         25.57541        24.66470         2.40003
C         24.36914        25.44241         2.65682
C         25.38024        27.36157         1.31621
C         24.17917        26.64388         1.80873
C         25.27398        28.73460         0.98832
C         24.01375        29.44957         1.01033
C         25.26628        31.60268         0.39082
C         23.98744        30.84610         0.50581
C         25.26100        33.04374         0.36505
C         24.00620        33.77304         0.70391
C         25.26730        36.02375         0.40665
C         24.00672        35.30673         0.68635
C         25.23609        37.41178         0.29940
C         23.98600        38.15647         0.22694
C         25.26469        40.32418         0.13469
C         23.98563        39.57923         0.12208
C         25.24183        41.79461        -0.17690
C         23.94756        42.45831        -0.40247
C         25.26951        44.62491        -0.85068
C         23.95167        43.89959        -0.73457
C         25.31003        46.10344        -0.60962
C         23.97024        46.84677        -0.63488
C         25.25856        48.99053        -1.05555
C         23.99159        48.27827        -1.00843
C         25.33294        50.36265        -0.99633
C         27.72731        23.02377         1.43563
C         26.87565        22.57195         2.46165
C         27.42193        24.29274         0.92750
C         26.52803        25.20859         1.49588
C         27.83416        27.35157         0.93073
C         26.60349        26.64335         1.18200
C         27.71155        28.77948         0.87030
C         26.46986        29.45217         0.71066
C         27.72480        31.53352         0.03930
C         26.45875        30.86721         0.40191
C         27.69628        33.07418        -0.05175
C         26.44042        33.78929         0.22495
C         27.71657        35.89745         0.09515
C         26.48911        35.24322         0.30331
C         27.80494        37.36565         0.22787
C         26.50631        38.16028         0.35467
C         27.74569        40.23377        -0.21287
C         26.54714        39.58995         0.00746
C         27.78129        41.65833        -0.66137
C         26.48688        42.42715        -0.71685
C         27.75519        44.54053        -0.95948
C         26.55753        43.89502        -0.76277
C         27.72730        45.99982        -1.24488
C         26.53337        46.78260        -1.01264
C         27.75392        48.94085        -0.64693
C         26.55624        48.25508        -1.35594
C         27.79560        50.44395        -0.89913
C         26.57745        51.07301        -1.03553
C         30.15277        20.19762         0.52411
C         29.03001        20.88307         0.87182
C         30.29955        23.06381         0.57807
C         29.03443        22.33892         1.09474
C         30.36065        24.53083         0.27985
C         29.19657        25.34796         0.29987
C         30.47128        27.29974         0.66724
C         29.15040        26.68721         0.71324
C         30.71800        28.64073         1.01831
C         28.83693        29.66213         1.04805
C         30.31168        31.59921         0.53954
C         28.98584        30.89058         0.46798
C         30.25911        33.07729         0.26221
C         28.97143        33.79114         0.05708
C         30.19735        35.87751        -0.36869
C         28.94661        35.16485        -0.02156
C         30.22707        37.35876        -0.51529
C         28.99991        38.11628        -0.19625
C         30.26627        40.23481        -0.39475
C         28.98164        39.48614        -0.29535
C         30.30320        41.72513        -0.45590
C         29.02830        42.44839        -0.64711
C         30.28594        44.55679        -0.84256
C         29.02197        43.81508        -0.87637
C         30.26001        45.95179        -0.80480
C         29.08836        46.75708        -1.13861
C         30.23974        48.91600        -0.73708
C         29.07549        48.23444        -0.91170
C         30.31036        50.40608        -0.61677
C         29.05400        51.16994        -0.80568
C         30.39390        53.25288        -0.90975
C         29.15256        52.54714        -0.91653
C         32.69829        18.64928        -0.37853
C         32.67079        20.04921         0.08930
C         31.40804        20.85358         0.22864
C         32.68893        22.91953        -0.31062
C         31.45699        22.22805         0.16657
C         32.71311        24.40631        -0.46464
C         31.55984        25.18810         0.01499
C         32.79742        27.33935        -0.20156
C         31.60349        26.60668         0.11806
C         32.83898        28.72530        -0.11328
C         31.73059        29.43599         0.44274
C         32.79832        31.57757        -0.02451
C         31.62221        30.86898         0.33337
C         32.75003        33.03262        -0.26889
C         31.50169        33.80680        -0.08006
C         32.72049        35.96464        -0.20956
C         31.47840        35.15719        -0.25177
C         32.72575        37.40509        -0.56239
C         31.52847        38.06853        -0.58815
C         32.78560        40.25301        -1.04370
C         31.48228        39.50629        -0.86944
C         32.79583        41.72585        -0.87378
C         31.58204        42.41821        -0.76478
C         32.79791        44.51428        -0.87046
C         31.54960        43.83881        -0.78462
C         32.76861        45.97629        -0.94987
C         31.51295        46.67982        -0.54260
C         32.75473        48.83273        -0.96843
C         31.50079        48.17013        -0.51849
C         32.79551        50.26853        -1.29515
C         31.64280        51.14431        -0.84171
C         32.86796        53.45072        -0.80080
C         31.63095        52.64424        -0.95465
C         32.93220        54.64925        -0.04912
C         35.17051        18.62908        -0.52969
C         33.86586        17.98590        -0.60217
C         35.18936        20.00920        -0.44297
C         33.99280        20.77976        -0.05010
C         35.19343        22.97101        -0.30312
C         34.00745        22.25466        -0.21204
C         35.27584        24.39998        -0.48018
C         34.01127        25.12023        -0.68404
C         35.32105        27.29689        -0.54330
C         34.01341        26.61793        -0.66244
C         35.30221        28.75187        -0.76678
C         33.96319        29.49680        -0.75671
C         35.30640        31.62590        -0.24932
C         34.04038        30.92430        -0.25423
C         35.32038        33.06251        -0.14617
C         34.05580        33.77642        -0.36638
C         35.24497        35.98821        -0.47797
C         34.01748        35.25168        -0.14472
C         35.22935        37.33561        -0.71861
C         33.99141        38.10156        -0.76064
C         35.30209        40.22891        -0.98965
C         34.04057        39.48729        -0.92749
C         35.26895        41.67308        -1.07168
C         34.05772        42.40554        -0.97257
C         35.28304        44.60305        -0.91495
C         34.04288        43.85136        -0.94677
C         35.32667        45.98308        -0.77598
C         34.06736        46.71809        -0.90815
C         35.31704        48.90988        -0.49145
C         34.03093        48.16029        -0.57578
C         35.31519        50.33277        -0.93841
C         34.16284        50.81970        -1.46039
C         35.36956        53.46224        -0.85431
C         34.11934        53.00940        -1.27456
C         35.38934        54.73113        -0.23421
C         34.15020        55.30593         0.14358
C         37.73258        15.78311        -0.82083
C         36.49962        16.51714        -0.82068
C         37.72574        18.61813        -0.58710
C         36.43325        17.88053        -0.63783
C         37.72950        20.01766        -0.04954
C         36.44501        20.75203        -0.19491
C         37.74828        22.94657        -0.71489
C         36.45371        22.21637        -0.48943
C         37.75752        24.42140        -0.47055
C         36.49930        25.11362        -0.45784
C         37.77569        27.30403        -0.31322
C         36.50928        26.58064        -0.46242
C         37.80471        28.70215        -0.28681
C         36.60630        29.50352        -0.58569
C         37.83019        31.74501        -0.34123
C         36.54349        30.94341        -0.27408
C         37.71587        33.10783         0.30644
C         36.51025        33.80022         0.10231
C         37.78601        35.98761        -0.33451
C         36.48678        35.28645        -0.06442
C         37.79612        37.30161        -1.07763
C         36.44752        38.03341        -1.27902
C         37.82852        40.20369        -1.12901
C         36.50585        39.52440        -1.00986
C         37.85430        41.69872        -1.23694
C         36.53359        42.40691        -1.33286
C         37.82548        44.61470        -0.86053
C         36.55754        43.90286        -1.16576
C         37.81713        45.99795        -0.75654
C         36.56251        46.74822        -0.73547
C         37.83185        48.91537        -0.95007
C         36.56637        48.13839        -0.65774
C         37.83033        50.41107        -0.59440
C         36.51602        51.18554        -0.53825
C         37.86215        53.29755        -0.60946
C         36.61915        52.62613        -1.15568
C         37.87792        54.71169        -0.43195
C         36.66087        55.44994        -0.26162
C         37.81873        57.48407        -0.85634
C         36.67562        56.85087        -0.37505
C         40.29874        14.19369        -0.87275
C         40.23521        15.60896        -0.49129
C         38.96073        16.37203        -0.64884
C         40.31050        18.52658        -0.20439
C         39.02980        17.84281        -0.60552
C         40.31132        20.02848        -0.05451
C         39.02221        20.85345         0.12645
C         40.26769        22.94814        -0.35226
C         39.05180        22.12167        -0.74822
C         40.26915        24.43255        -0.67720
C         38.96526        25.13055        -0.33636
C         40.27177        27.22611        -0.01403
C         39.00566        26.54358        -0.20627
C         40.23367        28.63245         0.44360
C         39.06596        29.43336        -0.04151
C         40.17796        31.51208         0.96195
C         39.10386        30.92872         0.02119
C         40.23073        33.03727         0.90434
C         38.96880        33.81856         0.57987
C         40.37799        35.77347        -0.40402
C         39.05579        35.25930         0.05134
C         40.39980        37.26774        -0.82132
C         39.10324        38.03653        -1.00496
C         40.33442        40.23222        -0.58962
C         39.02570        39.48727        -0.51579
C         40.38045        41.71972        -0.89715
C         39.05906        42.46658        -0.83937
C         40.28431        44.59352        -0.40329
C         39.05444        43.84973        -0.71231
C         40.27916        46.00103        -0.31486
C         39.04738        46.74286        -0.52958
C         40.21540        48.84004         0.00496
C         39.02989        48.12350        -0.47743
C         40.21439        50.34541         0.04485
C         38.99382        51.09087        -0.36394
C         40.27810        53.24391        -0.20941
C         39.06419        52.56715        -0.39594
C         40.45859        54.67934        -0.71124
C         39.11710        55.40397        -0.61212
C         41.12407        57.74400        -1.12645
C         38.99323        56.73006        -1.02901
C         41.41988        59.08065        -1.40985
C         42.73974        14.27700        -1.01805
C         41.49422        13.56169        -1.01870
C         42.79901        15.63518        -0.87001
C         41.58204        16.37740        -0.50984
C         42.74625        18.57842        -0.72092
C         41.58184        17.85960        -0.58706
C         42.73868        20.03203        -0.61553
C         41.56754        20.72451        -0.42090
C         42.79141        22.97878        -0.77506
C         41.56921        22.20820        -0.37348
C         42.79374        24.44855        -0.52862
C         41.51360        25.08410        -0.00410
C         42.76774        27.26271         0.11515
C         41.50477        26.58625        -0.09054
C         42.79064        28.61072         0.46232
C         41.54012        29.34710         0.73472
C         42.74109        31.52062         0.78133
C         41.55574        30.84126         0.76132
C         42.81053        32.99335         0.96443
C         41.52654        33.78810         0.90281
C         42.81382        35.44140        -0.29567
C         41.57713        35.07735         0.14160
C         42.85633        37.53177        -0.77962
C         41.60506        38.09818        -0.62942
C         42.78196        40.21768        -0.12443
C         41.52669        39.53461        -0.41096
C         42.69673        41.64893         0.28247
C         41.44027        42.41344        -0.06242
C         42.68848        44.56669         0.17267
C         41.49098        43.88949        -0.12557
C         42.71068        45.99728         0.18515
C         41.49768        46.71172        -0.03880
C         42.67870        48.85577         0.33277
C         41.50136        48.13197         0.05648
C         42.68116        50.32198         0.36273
C         41.51238        51.03039         0.12604
C         42.65938        53.24886         0.68468
C         41.44281        52.50023         0.29108
C         42.67257        54.73820         0.54109
C         41.67579        55.45469        -0.08370
C         43.05806        57.55728         0.27280
C         41.90839        56.90596        -0.28950
C         43.33025        58.92104         0.01080
C         42.52990        59.68540        -0.82296
C         45.30264        15.78728        -0.52351
C         44.08719        16.36317        -1.23038
C         45.31894        18.62271        -0.81217
C         44.03050        17.89483        -1.06744
C         45.31935        20.06463        -0.42595
C         44.02536        20.79147        -0.48303
C         45.31009        22.99481        -0.55177
C         44.08364        22.22009        -0.99328
C         45.32169        24.36633        -0.30368
C         44.07364        25.14551        -0.25044
C         45.27795        27.20432         0.37093
C         44.02177        26.49368         0.02293
C         45.30451        28.68807         0.05716
C         44.06947        29.33497         0.64860
C         45.33042        31.56040         0.44587
C         44.06997        30.82826         0.80366
C         45.32706        32.93669         0.37992
C         44.13233        33.69388         0.80731
C         45.28248        35.89239         0.00922
C         44.04216        35.19517         0.53961
C         45.23950        37.33085        -0.11148
C         44.07628        38.11525        -0.32197
C         45.19319        40.19713         0.48320
C         43.98665        39.53040        -0.05124
C         45.15754        41.67008         0.78835
C         43.92682        42.43414         0.50209
C         45.12499        44.59724         0.61677
C         43.91388        43.83104         0.44752
C         45.14981        45.99093         0.65278
C         43.90684        46.72497         0.49027
C         45.06270        48.87257         1.05041
C         43.87410        48.13026         0.58684
C         45.08633        50.34247         0.92202
C         43.93169        51.02568         0.61127
C         45.01120        53.02921         1.62978
C         44.01246        52.54775         0.55099
C         45.02370        54.55093         1.75073
C         43.80427        55.38950         1.24016
C         45.12499        57.40407         1.67525
C         44.01144        56.82239         1.07571
C         46.46366        16.46718        -0.34833
C         47.77592        18.61580        -0.49104
C         46.58515        17.89048        -0.57520
C         47.79243        20.08162        -0.58549
C         46.60052        20.78522        -0.62926
C         47.88215        22.99826        -0.62185
C         46.56865        22.25309        -0.76361
C         47.82907        24.40799        -0.18596
C         46.58579        25.03949        -0.05950
C         47.83196        27.22185         0.30199
C         46.57443        26.45298         0.34466
C         47.78562        28.63946         0.49540
C         46.59422        29.38133         0.43237
C         47.80763        31.52884         0.29272
C         46.59105        30.82229         0.38296
C         47.82395        32.92348        -0.17200
C         46.50156        33.69781        -0.08490
C         47.74808        35.90805         0.08754
C         46.49194        35.19569        -0.03300
C         47.75306        37.28500         0.22228
C         46.52575        38.05371        -0.06597
C         47.75850        40.24945         0.55977
C         46.50567        39.54696         0.17904
C         47.74227        41.69724         0.65774
C         46.45466        42.40496         0.88907
C         47.64851        44.63275         0.43888
C         46.40908        43.89034         0.81188
C         47.64540        46.07538         0.73422
C         46.40822        46.70125         0.82644
C         47.64212        48.90311         1.03222
C         46.38071        48.13736         1.14514
C         47.59877        50.29805         1.07067
C         46.35955        51.03103         1.13579
C         47.58946        53.15207         1.52414
C         46.36877        52.40634         1.36363
C         47.56100        54.54592         1.82937
C         46.29598        55.26127         1.91848
C         46.24556        56.64467         2.06770
C         50.22611        18.61995        -0.35069
C         49.04336        17.94343        -0.36710
C         50.28425        20.06020        -0.38063
C         49.06699        20.79302        -0.49199
C         50.31323        22.90351        -0.16641
C         49.10317        22.20698        -0.40016
C         50.31184        24.35975         0.02016
C         49.06160        25.09221         0.06650
C         50.29304        27.22949         0.48405
C         49.05512        26.51507         0.27570
C         50.32794        28.60766         0.69180
C         49.04675        29.32806         0.82028
C         50.37140        31.51285         0.50575
C         49.05521        30.87170         0.68603
C         50.41904        32.96898         0.19412
C         49.13837        33.72612        -0.27513
C         50.20570        35.84183         0.82044
C         48.97768        35.10331         0.39231
C         50.23126        37.34491         0.89947
C         48.93611        38.05871         0.64756
C         50.21170        40.23204         0.72872
C         48.93196        39.53828         0.54093
C         50.19923        41.72718         0.73944
C         48.91284        42.41824         0.62437
C         50.16802        44.64040         0.75796
C         48.94323        43.88745         0.41428
C         50.15932        46.01554         0.97699
C         48.89856        46.76871         0.91899
C         50.12203        48.90480         1.30332
C         48.87400        48.16625         1.02648
C         50.17139        50.35662         1.00453
C         48.84367        51.08587         0.94486
C         50.07278        53.19794         1.45324
C         48.84310        52.51082         1.30652
C         50.01072        54.56758         1.80133
C         48.79655        55.21808         1.96639
C         52.80259        20.06408        -0.31652
C         51.52024        20.76066        -0.28458
C         52.81793        22.86997        -0.02160
C         51.51924        22.16775        -0.15320
C         52.82561        24.34702         0.19346
C         51.51103        25.03402         0.21416
C         52.86269        27.22250         0.67852
C         51.52604        26.44989         0.59915
C         52.81465        28.69187         0.69656
C         51.57083        29.34307         0.78508
C         52.80399        31.49102         1.08416
C         51.52908        30.80019         0.75228
C         52.81259        32.97477         1.29381
C         51.62290        33.71130         0.71720
C         52.82208        35.96680         1.00443
C         51.54129        35.18111         0.97146
C         52.81727        37.37973         0.57609
C         51.50606        38.05136         0.49386
C         52.73091        40.32023         0.35222
C         51.47015        39.54711         0.30854
C         52.71656        41.69853         0.47091
C         51.42639        42.47599         0.24987
C         52.70822        44.58533         1.05289
C         51.39424        43.85012         0.92311
C         52.64681        46.04511         1.00229
C         51.43744        46.70837         1.12101
C         52.67103        48.96867         1.17962
C         51.44840        48.17379         1.34526
C         52.66587        50.38107         1.25036
C         51.41677        51.09716         1.27774
C         52.60187        53.20151         1.33043
C         51.36564        52.50216         1.33975
C         53.98260        20.70600        -0.46708
C         55.30398        22.95578        -0.68745
C         54.02541        22.18144        -0.58042
C         55.31587        24.42250        -0.39669
C         53.99381        25.16186        -0.35729
C         55.27766        27.27005         0.16307
C         54.09474        26.55993         0.21380
C         55.33393        28.68223         0.45474
C         54.08673        29.40454         0.67588
C         55.34172        31.53473         1.01784
C         54.07815        30.77935         0.89613
C         55.35420        33.00301         0.85596
C         54.12951        33.72534         1.23257
C         55.28169        35.84731         0.38014
C         54.12880        35.22394         1.04029
C         55.15598        37.20325        -0.06535
C         53.97636        38.02138         0.14523
C         55.13912        40.42186        -0.17648
C         54.03946        39.55436         0.40307
C         55.17454        41.78739         0.18202
C         53.93896        42.47541         0.49467
C         55.15128        44.62030         0.59740
C         53.95034        43.87044         0.68193
C         55.19250        46.02007         0.77298
C         53.91081        46.77142         0.74899
C         55.21632        48.97262         1.14528
C         53.92581        48.26349         0.88054
C         55.18046        50.44554         1.01606
C         53.90113        51.12640         1.15173
C         53.81407        52.53513         1.19847
C         57.75515        22.97229        -0.61020
C         56.61428        22.27230        -0.53763
C         57.71555        24.41350        -1.06012
C         56.48332        25.10932        -0.49034
C         57.80723        27.32501        -0.31320
C         56.54503        26.53747        -0.08967
C         57.73899        28.79835        -0.19673
C         56.57789        29.38136         0.34417
C         57.82269        31.63067         0.43930
C         56.62335        30.81034         0.74273
C         57.78549        32.99779         0.33414
C         56.50632        33.70228         0.49115
C         57.65195        35.72136        -0.50239
C         56.46086        35.11229         0.20718
C         57.59667        37.22499        -0.53253
C         56.32185        37.71230        -0.71268
C         57.58104        40.44560        -0.55204
C         56.29680        39.92504        -0.77152
C         57.62549        41.77501        -0.07469
C         56.39837        42.47528         0.09783
C         57.64298        44.53960         0.73200
C         56.40773        43.96522         0.10771
C         57.60834        45.91426         0.98800
C         56.44123        46.70176         0.82454
C         57.68321        48.98366         0.49012
C         56.52458        48.19344         0.98756
C         57.58535        50.36411         0.51644
C         56.39711        51.08361         0.83037
C         60.22979        24.54962        -1.06615
C         59.02567        25.17378        -0.92776
C         60.28750        27.42831        -1.06621
C         58.97556        26.65501        -0.97164
C         60.30751        28.88597        -0.67359
C         58.97344        29.58691        -0.35453
C         60.34187        31.63833         0.22119
C         59.09176        30.85060         0.50806
C         60.28837        33.07039         0.13965
C         59.02983        33.75037         0.12558
C         60.16316        35.88667        -0.40359
C         58.98914        35.13422        -0.15817
C         60.11510        37.33880        -0.80142
C         58.79160        38.05966        -0.87067
C         60.10791        40.26716        -0.26925
C         58.79203        39.55930        -0.49662
C         60.21945        41.80266        -0.06704
C         58.86987        42.43657         0.24038
C         60.47639        44.93534        -0.33475
C         58.82482        43.75826         0.67050
C         60.30803        46.36557        -0.55954
C         59.35315        47.10233         0.20577
C         59.46184        48.97805        -1.29395
C         58.84598        48.35887        -0.18574
C         61.47525        25.27442        -1.05854
C         61.52243        26.63002        -1.01428
C         61.49839        29.51605        -0.11436
C         61.52803        30.87636         0.15259
C         61.46097        33.85150        -0.03655
C         61.40084        35.21645        -0.27382
C         61.35495        38.16679        -0.71175
C         61.35049        39.50377        -0.56163
C         60.64927        42.60448        -1.27392
C         60.76799        43.98839        -1.35222
C         60.87997        47.03393        -1.67007
C         60.48542        48.33021        -1.99564
O         40.41494        19.13371         1.12013
O         29.84227        29.22964         1.92091
O         52.03079        43.97533         2.21671
O         31.59000        47.41916         0.73433
O         44.24007        29.93168         1.95994
O         41.78481        52.81268         1.75992
O         40.93848        22.63790         0.88282
O         51.31081        42.67821        -1.13099
O         34.15092        51.98466        -2.23093
O         40.79559        33.60926         2.14258
O         40.95203        15.92642         0.74362
O         54.50203        22.65631        -1.90760
O         38.11289        40.82286        -2.42352
O         60.03498        44.46724         0.88848
O         52.08401        35.66014         2.23560
O         24.67964        46.55790         0.63334
O         27.01789        41.80017        -1.92767
O         41.61483        41.87898         1.27748
O         33.35569        33.36556        -1.58593
O         47.30273        22.75926        -1.94811
O         45.84429        26.76734         1.62839
O         31.94086        39.86613        -2.20755
O         48.96136        30.19135         1.98341
O         28.07016        24.72357        -0.23135
O         43.96223        54.98032         2.64643
O         58.81107        46.54343         1.36886
O         36.90293        20.25907         1.12518
O         49.59103        50.73667        -0.28594
O         33.92552        25.89759        -1.93922
O         42.96986        36.27652        -1.40082
O         56.18997        31.03832         2.14024
O         39.59365        30.27340        -1.18290
O         39.93209        49.56415         1.27597
O         40.47541        36.17115        -1.78490
O         24.55209        44.22982        -2.07214
O         27.69341        32.20313        -1.24861
O         23.06921        26.50309         0.86353
O         59.58610        29.73025        -1.64878
O         27.31004        37.82803         1.53404
O         50.71523        48.56535         2.58824
O         59.37731        39.67784         0.86248
O         36.51691        43.28329        -2.51359
O         38.96401        34.97006         1.46356
O         23.10658        31.01267        -0.66686
O         53.08459        23.44971         1.31500
O         53.86364        47.63447        -0.46586
O         30.05707        22.82274         2.02857
O         55.99013        48.55508         2.31402
O         33.40016        35.70344         1.10466
O         40.69050        28.78284         1.81175
O         52.25106        26.62749         1.87144
O         38.49697        18.48903        -1.82402
O         51.31322        38.67161        -0.84828
O         28.50299        46.38055        -2.44145
O         59.43815        37.61767        -2.11078
O         33.50946        20.30466         1.27119
O         38.56725        37.58441        -2.28395
O         31.17145        50.78609         0.50669
O         24.10592        34.55445         1.94842
O         51.52837        33.34752        -0.69559
O         34.53814        48.56205         0.73078
O         49.30678        35.19498         1.80046
O         54.39235        34.64232         2.34963
O         44.75539        18.52222        -2.18437
O         30.35151        32.55775         1.66549
O         44.64453        20.50445         0.81441
O         40.00776        57.28301        -1.81705
O         36.92772        22.53215        -1.85525
O         42.63808        23.92943        -1.88799
O         30.45200        41.00730         0.84669
O         56.16977        38.79709        -1.56036
O         50.37025        40.98003         1.98179
O         25.36708        41.33666         1.21808
O         48.25656        44.28846        -0.84174
O         30.04414        36.49875        -1.71647
O         36.07863        29.15708        -1.94531
O         32.41426        23.54990        -1.62826
O         52.64717        32.14054         2.44917
O         45.02605        40.65497         1.85593
O         49.47654        37.80103         2.03850
O         43.63895        33.34377         2.13891
O         57.52957        26.69878         1.00197
O         45.58675        48.42559         2.35198
O         46.51274        43.22430         2.11833
O         59.43360        27.20726        -2.23424
O         33.37251        46.48599        -2.18897
O         46.99979        33.15358        -1.36880
O         46.61148        39.03763        -1.18814
O         37.06846        36.18038         0.94133
O         32.55924        49.27484        -2.35948
O         57.48391        24.38646        -2.50592
H         56.68113        23.84716        -2.67437
O         36.80857        52.52453        -2.57940
H         35.95578        52.22506        -2.97079
O         45.14044        28.81560        -1.38848
H         45.96555        28.52080        -1.82770
O         36.27595        51.43773         0.87595
H         36.20037        50.57780         1.34306
O         57.47824        35.35593        -1.93248
H         58.13013        35.89841        -2.43654
O         38.69457        39.38262         0.90522
H         39.52052        39.32170         1.43085
O         39.27625        21.67028        -2.09450
H         39.15446        22.42929        -2.70447
O         41.51011        24.88437         1.42677
H         40.72759        25.33138         1.81087
O         27.52872        48.75110         0.77504
H         28.23130        49.22410         1.26944
O         54.42255        39.53048         1.83164
H         53.64997        39.23501         2.36045
O         43.79019        35.86397         1.80209
H         43.57583        35.16174         2.46661
O         38.99876        21.32178         1.47869
H         39.27884        20.57934         2.05804
O         44.25268        22.04565        -2.42541
H         43.95117        22.88066        -2.85365
O         26.73319        48.37817        -2.78944
H         27.43128        47.73045        -3.06223
O         44.56162        52.94654        -0.72965
H         44.01209        52.56366        -1.44492
O         39.70700        31.18110         2.28134
H         40.21664        31.72544         2.92296
O         59.21787        30.36645         1.88920
H         58.38468        30.56241         2.37280
O         37.94566        48.94728        -2.42489
H         37.84975        48.02775        -2.75494
O         49.35772        34.01374        -1.66784
H         48.49731        33.89669        -2.13674
O         44.29902        16.07152        -2.63835
H         44.78170        16.84816        -3.01247
O         40.81675        41.82644        -2.28833
H         40.07709        41.47963        -2.84146
O         40.31051        24.55270        -2.11960
H         40.36497        25.50312        -2.35233
O         36.16324        37.96573        -2.71279
H         36.98741        38.22948        -3.18531
O         44.59330        52.50155         2.90068
H         43.86482        53.07725         3.23087
O         61.14888        42.00150         1.00891
H         60.79512        41.53079         1.79293
O         40.78137        54.55305        -2.13103
H         40.62881        55.43533        -2.54000
O         37.97911        32.09685        -1.76068
H         38.33307        31.29276        -2.21195
O         56.51636        44.36293        -1.33208
H         55.68653        44.07653        -1.77277
O         33.55731        29.63715        -2.15154
H         34.38052        29.79246        -2.67139
O         53.64962        25.35768        -1.77515
H         53.81620        24.49416        -2.22881
H         23.47528        24.11405         4.08850
H         21.48332        25.51582         4.48895
H         21.14266        27.64672         3.34571
H         20.78260        29.16228         2.13879
H         20.65966        31.51036         1.52999
H         20.57434        33.34762         0.57667
H         20.58490        35.77355         0.42140
H         20.58143        37.68951         0.20662
H         20.60109        40.10506        -0.02334
H         20.58504        42.02340         0.00291
H         20.55221        44.42302        -0.24832
H         20.55449        46.29071        -1.04625
H         22.75709        49.95210        -1.57943
H         20.62819        48.70429        -1.48692
H         25.06894        22.91380         3.58233
H         24.41661        50.96046        -0.88255
H         27.04249        21.58845         2.92279
H         26.52704        52.16878        -1.11342
H         30.09986        19.10463         0.41513
H         28.07530        20.34746         0.98014
H         30.34407        54.35142        -0.92610
H         28.23964        53.15025        -1.01955
H         31.74307        18.13201        -0.55301
H         32.01406        55.08616         0.36826
H         33.81826        16.92888        -0.90170
H         34.14724        56.27489         0.66252
H         37.65799        14.68903        -0.89645
H         35.57404        15.93142        -0.91093
H         37.80391        58.54460        -1.13740
H         35.74927        57.42486        -0.23699
H         39.36426        13.64476        -1.05470
H         40.76262        59.63416        -2.09205
H         43.64888        13.71979        -1.28416
H         41.51534        12.49093        -1.26643
H         44.21606        59.39042         0.45416
H         42.77098        60.73716        -1.02424
H         45.28671        14.71020        -0.29896
H         45.23196        58.49592         1.71140
H         47.33520        15.92248         0.04466
H         47.14946        57.20221         2.34791
H         51.15724        18.04358        -0.27460
H         49.05962        16.84627        -0.31758
H         50.93535        55.14104         1.94990
H         48.81469        56.28592         2.22073
H         52.80951        18.96688        -0.27010
H         52.61318        54.29896         1.37164
H         54.91321        20.12946        -0.56504
H         54.73300        53.13492         1.14289
H         58.71822        22.46959        -0.44135
H         56.63114        21.20176        -0.28632
H         58.45993        50.95835         0.21293
H         56.44975        52.18087         0.79923
H         60.28641        23.45452        -1.13711
H         59.11712        49.96504        -1.63234
H         62.40955        24.69568        -1.05522
H         62.49129        27.14253        -0.93066
H         62.41157        28.91922         0.01962
H         62.50428        31.35597         0.32217
H         62.44546        33.36519        -0.00254
H         62.34258        35.76256        -0.41808
H         62.31894        37.66119        -0.87207
H         62.29804        40.06283        -0.57729
H         60.73889        42.05963        -2.22903
H         61.03261        44.39903        -2.33911
H         61.63966        46.52607        -2.28049
H         60.94929        48.83377        -2.85444
