         276
 CSIRO Nanostructure Databank - Neutral Graphene Oxide Data Set
C        -11.37321         0.64280        -0.74591
C        -10.19871         1.49007        -0.86990
C         -8.87802         0.82475        -0.87741
C         -7.62510         1.51963        -1.21943
C         -6.34323         0.75278        -1.25623
C         -5.05290         1.45394        -1.73830
C         -3.78448         0.83324        -1.16588
C         -2.49258         1.58660        -1.32298
C         -1.27139         0.76655        -1.63494
C          0.06860         1.45049        -1.72795
C          1.22166         0.77467        -1.00501
C          2.52476         1.50292        -0.94494
C          3.77702         0.64802        -0.62565
C          5.09791         1.42753        -0.85839
C          6.37982         0.64553        -1.06118
C          7.69379         1.38910        -0.94034
C          8.97305         0.59130        -0.62396
C         10.04674         1.42230         0.06227
C         11.20771         0.65724         0.51886
C        -10.42232         2.85228        -0.75959
C         -9.36259         3.80855        -1.00559
C         -7.53473         2.79978        -1.70892
C         -6.32167         3.63795        -1.73666
C         -5.04059         2.95614        -1.58955
C         -3.79100         3.65151        -1.86026
C         -2.49947         2.97973        -1.78757
C         -1.22591         3.69374        -1.99940
C          0.09084         2.94912        -1.89941
C          1.32073         3.70216        -1.49719
C          2.59481         2.91007        -1.50239
C          3.88897         3.66952        -1.38928
C          5.12921         2.91665        -0.98901
C          6.41642         3.68052        -1.25940
C          7.67868         2.88259        -0.87331
C          8.67421         3.52613         0.08127
C          9.97918         2.77296         0.18617
C         -8.88879         4.81046        -0.21188
C         -7.58924         5.48971        -0.28910
C         -6.42780         5.07933        -1.15004
C         -5.09205         5.78794        -0.91464
C         -3.83214         5.20068        -1.56661
C         -2.50023         5.84509        -1.25854
C         -1.20442         5.18863        -1.73565
C          0.13550         5.94836        -1.52214
C          1.35088         5.05373        -1.29594
C          2.61539         5.76839        -0.99365
C          3.85828         5.12787        -1.15851
C          5.18240         5.88637        -1.07695
C          6.28190         5.01197        -0.44680
C          7.61696         5.73961        -0.29796
C          8.74667         5.02737        -0.10217
C         -7.40405         6.42153         0.69391
C         -6.18250         7.24601         0.99336
C         -4.97209         6.85587         0.14175
C         -3.62629         7.39605         0.64991
C         -2.43862         6.81309        -0.11654
C         -1.09769         6.92323         0.53339
C          0.04295         7.01930        -0.42350
C          1.29821         7.58977         0.11641
C          2.56035         7.06578        -0.42131
C          3.76098         7.81485        -0.04115
C          5.09981         7.21952        -0.33003
C          6.28872         7.68139         0.50890
C          7.59295         7.26507        -0.23224
C         -5.88092         7.17903         2.47342
C         -4.63653         7.23715         2.98294
C         -3.44162         7.32239         2.15653
C         -2.21747         7.49917         2.71982
C         -0.96257         7.40124         1.93490
C          0.27385         8.12057         2.31883
C          1.34311         8.21475         1.47543
C          2.55212         8.96042         1.79082
C          3.68736         8.82998         1.03947
C          4.90872         9.61150         1.23465
C          6.12202         9.14137         0.86395
C        -11.29225        -0.67952        -0.46899
C        -10.01226        -1.28107        -0.15082
C         -8.81983        -0.47136        -0.35793
C         -7.52853        -1.09627         0.04502
C         -6.28183        -0.59263        -0.61869
C         -4.93951        -1.09113        -0.08576
C         -3.79205        -0.69750        -1.07782
C         -2.44034        -1.25491        -0.64950
C         -1.28454        -0.72020        -1.46465
C          0.07317        -1.43687        -1.49760
C          1.18414        -0.74583        -0.70153
C          2.48539        -1.51364        -0.98390
C          3.77983        -0.75562        -1.27327
C          4.97950        -1.50150        -0.68584
C          6.29627        -0.79191        -0.65384
C          7.43144        -1.36993         0.13916
C          8.75996        -0.70362         0.14022
C         10.01789        -1.56346         0.29822
C         11.19515        -0.68454         0.67173
C         -9.97798        -2.58173         0.29467
C         -8.77926        -3.24102         0.92685
C         -7.49171        -2.48211         0.61143
C         -6.23508        -3.29311         0.44353
C         -4.94814        -2.60741         0.13211
C         -3.65483        -3.18137         0.71297
C         -2.39027        -2.59176         0.02149
C         -1.29227        -3.50251        -0.42929
C         -0.05842        -2.90829        -1.10929
C          1.21958        -3.66190        -0.92682
C          2.47099        -2.88136        -0.97554
C          3.77234        -3.68134        -0.95352
C          4.93254        -2.83179        -0.44789
C          6.06636        -3.51989         0.23890
C          7.32727        -2.80006         0.57167
C          8.56964        -3.56273         0.89095
C          9.79441        -2.73808         1.27403
C         -8.66625        -4.72451         0.65622
C         -7.50414        -5.41522         0.80898
C         -6.21663        -4.66120         1.11326
C         -4.96031        -5.43388         0.69890
C         -3.63810        -4.71585         0.86646
C         -2.37855        -5.53386         0.64315
C         -1.23403        -4.90321        -0.01822
C         -0.19071        -5.71435        -0.75545
C          1.16583        -5.00831        -0.68706
C          2.43017        -5.83830        -0.48929
C          3.57790        -4.93041        -0.08128
C          4.78483        -5.62120         0.43626
C          6.12849        -5.02349         0.08117
C          7.21776        -5.67767         1.03741
C          8.52352        -4.90573         1.03249
C         -7.48186        -6.86807         0.82191
C         -6.32482        -7.60139         0.85280
C         -5.01210        -6.92506         0.65815
C         -3.78392        -7.71080         1.07758
C         -2.46765        -7.04535         0.68696
C         -1.36364        -7.86832         0.12857
C         -0.13485        -7.19019        -0.38425
C          1.10100        -7.90244         0.03103
C          2.19749        -6.98748         0.55408
C          3.45723        -7.76664         0.97511
C          4.77174        -7.07734         0.82138
C          6.01142        -7.87686         0.43777
C          7.29072        -7.11987         0.67621
C         -6.31319        -9.04707         0.93527
C         -5.16970        -9.78282         0.84213
C         -3.85526        -9.17784         0.67583
C         -2.78161        -9.92522         0.30517
C         -1.46222        -9.35503        -0.15824
C         -0.18076       -10.01205         0.36074
C          0.99686        -9.34571         0.42252
C          2.34417       -10.04660         0.41600
C          3.38556        -9.27984         1.25622
C          4.76394        -9.91378         1.21479
C          5.92314        -9.29553         0.95130
O         -1.10264        -3.46193        -1.92859
O          0.40226         6.72906        -2.75228
O         -7.34894        -1.31432         1.48969
O          5.20878         2.31257         0.32891
O          3.39064         3.15334        -2.68724
O         -6.54556         4.82874        -2.56956
O         -1.59702        -0.13859        -2.74838
O          6.27362        -3.01009         1.59799
O         -1.42270        -7.58271         1.57538
O          3.93002        -4.79925         1.31208
O          4.17411        -7.20870         2.13973
O         -3.95106         4.72921        -2.87255
O         -1.29978         4.67845        -3.09410
O         -0.79607         5.93230         1.56767
O         -8.65169         3.48054        -2.17317
O         -4.97728        -6.14752        -0.57836
O         -2.80193        -5.04551         2.00177
O          0.69868        -7.85687        -1.39507
O          6.52798        -0.39157        -2.06704
O          0.42900         8.35154        -0.83375
O         -5.65199        -3.33376        -0.90050
O          7.88297        -0.52532         1.28408
O         -5.19169         7.21931        -1.25460
O         -2.02805        -1.35866         0.73589
O          1.59763         1.52977         0.19320
O          4.59405         8.26246        -1.19939
O         -6.49127        -0.50175        -2.05194
O          4.17383        -4.18615        -2.22965
O          8.12233         2.23162        -2.08759
O          0.36034         2.03402        -3.01916
O         -2.44917         7.28535        -1.49501
O         -3.18511         1.43810         0.00267
O         -1.45162        -9.56425        -1.59223
H         -0.60531        -9.18699        -1.93329
O         10.29670        -2.18908        -0.97272
H         10.29374        -1.47974        -1.66043
O          2.91027        -9.42275         2.61409
H          3.40476        -8.77059         3.15993
O         -6.13411        -4.43851         2.53434
H         -6.28638        -5.28758         2.99857
O          3.72398         0.33577         0.77824
H          3.95005         1.15519         1.27537
O          6.01704        -7.97007        -1.01912
H          6.17310        -7.05258        -1.38347
O          5.77300         4.70433         0.85780
H          6.44050         4.14301         1.32726
O          1.02637         5.85897        -3.71897
H          0.25784         5.33947        -4.07590
O          0.54383        -1.44032        -2.85188
H         -0.18968        -1.73863        -3.43233
O         -3.85034        -7.69513         2.52738
H         -2.93468        -7.85839         2.85234
O         -0.57155        -5.77658        -2.16508
H          0.13241        -6.29724        -2.61378
O          6.66470        -5.57579         2.36442
H          6.41792        -4.62886         2.51378
O          6.27317         6.98932         1.78453
H          6.73432         7.54752         2.44371
O          7.64869         7.83653        -1.53458
H          6.94027         7.41740        -2.08615
O         -4.95060         1.20517        -3.17051
H         -5.75461         1.55368        -3.61052
O          1.64729        -6.36942         1.73015
H          2.40941        -5.99063         2.23126
O          5.56123         6.23353        -2.43326
H          4.88524         6.87108        -2.75993
O         -3.61706         8.80672         0.34865
H         -3.67900         8.88671        -0.62989
O          6.45942         3.93648        -2.65821
H          7.34224         4.27599        -2.90666
O         -9.01511        -3.13045         2.36432
H         -8.60047        -2.28144         2.64655
O         -3.65661        -2.67264         2.06474
H         -3.02497        -3.21736         2.58969
O         -4.74682        -0.40059         1.14763
H         -4.04756        -0.86696         1.66797
O         -6.50175         8.62499         0.68566
H         -6.45433         8.71518        -0.29131
O         -4.00240        -1.30888        -2.34584
H         -4.83191        -0.94826        -2.74595
O          8.04952         3.31831         1.40550
H          8.67277         3.64448         2.08870
O          2.83941        -6.40941        -1.74398
H          3.29451        -5.65975        -2.24763
O          0.88185        -0.90756         0.68989
H          1.50417        -0.32675         1.18677
O          9.54126         0.18902        -1.89769
H          9.37961         0.92761        -2.53111
O          3.89965        -0.59928        -2.69046
H          3.96788        -1.49058        -3.09581
O          9.60255        -2.24901         2.60194
H          8.81608        -1.65333         2.58922
O          6.40175        -5.30537        -1.29964
H          5.64026        -4.87886        -1.84369
O          2.76805       -10.14331        -0.94807
H          2.57216        -9.30107        -1.41148
H         12.09690        -1.19129         1.04841
H         12.10242         1.22869         0.81375
H         10.82663         3.30913         0.64654
H          9.70776         5.53990         0.06852
H          8.48727         7.62929         0.33715
H          7.02189         9.76291         0.98997
H          4.81216        10.62412         1.65573
H          2.53504         9.64166         2.65482
H          0.30054         8.61669         3.30056
H         -2.12925         7.55511         3.81633
H         -4.48946         7.21740         4.07365
H         -6.74420         7.13287         3.15390
H         -8.26913         6.65813         1.33354
H         -9.48728         5.07207         0.67356
H        -11.43063         3.19939        -0.48389
H        -12.35510         1.11731        -0.88857
H        -12.19834        -1.29741        -0.39489
H        -10.93573        -3.11754         0.39274
H         -9.60284        -5.27894         0.48603
H         -8.45161        -7.38895         0.85332
H         -7.28201        -9.55918         1.03419
H         -5.23238       -10.88169         0.83514
H         -2.93519       -10.99901         0.10840
H         -0.18868       -11.10505         0.50046
H          2.25513       -11.08480         0.81888
H          4.79320       -10.96888         1.53124
H          6.86533        -9.86254         1.00313
H          8.16884        -7.47913         0.11174
H          9.43475        -5.44843         1.32992
H         10.70214        -3.38996         1.27761
