         349
 CSIRO Nanostructure Databank - Neutral Graphene Oxide Data Set
C          1.39631         3.51733        -1.22460
C          0.17274         4.20892        -1.24412
C          1.28357         6.39488        -0.90908
C          0.07928         5.56480        -0.98663
C          1.24883         7.81198        -0.45349
C          0.02580         8.51699        -0.46080
C          1.13431        10.60672         0.11749
C         -0.03733         9.87047        -0.17824
C          1.10456        12.02835         0.38319
C         -0.12680        12.78529         0.27739
C          0.94489        14.88476         1.02708
C         -0.20366        14.11961         0.51863
C          0.91763        16.40053         1.04673
C         -0.26356        17.16545         0.62841
C          1.02362        19.26869         0.48641
C         -0.21709        18.51736         0.48553
C          1.02303        20.72751         0.27059
C         -0.13513        21.44456         0.01219
C          1.05241        23.58942        -0.12582
C         -0.11525        22.84479        -0.19660
C          1.09560        24.99560        -0.55266
C         -0.10401        25.72420        -0.88539
C          1.15823        27.77639        -1.26796
C         -0.06689        27.09004        -1.12755
C          1.24961        29.18453        -1.37577
C          3.71725         3.46427        -0.43041
C          2.59851         4.16844        -0.82515
C          3.77389         6.35204        -0.23178
C          2.60737         5.64993        -0.80589
C          3.71667         7.78066        -0.01737
C          2.43904         8.48834        -0.10646
C          3.55774        10.61227         0.51673
C          2.37464         9.89764         0.17540
C          3.54607        12.01380         0.67796
C          2.30194        12.71507         0.63103
C          3.53869        14.93150         0.76073
C          2.28936        14.15593         0.98362
C          3.51359        16.38569         0.79765
C          2.24980        17.15629         0.97927
C          3.50790        19.28515         0.24179
C          2.21930        18.57867         0.58081
C          3.45350        20.75346         0.59033
C          2.26585        21.46197         0.41188
C          3.49138        23.61945         0.25991
C          2.28848        22.91423         0.23983
C          3.52975        25.11387         0.02454
C          2.31435        25.64342        -0.66861
C          3.68992        27.69131        -1.26426
C          2.39767        26.93944        -1.43457
C          3.72249        29.11718        -1.37191
C          2.46778        29.83370        -1.42194
C          6.18793         3.47052        -0.05938
C          4.87722         4.13045         0.24501
C          6.16148         6.30864         0.30579
C          4.92039         5.62942         0.04877
C          6.14664         7.75123         0.46445
C          4.87481         8.43733         0.41245
C          6.08584        10.66694         0.91810
C          4.78761         9.86184         0.78476
C          6.01600        12.10687         0.65537
C          4.78828        12.76712         0.68410
C          5.96022        14.94631         0.22844
C          4.71239        14.21935         0.51885
C          5.95634        16.43670         0.45302
C          4.68922        17.11592         0.75572
C          5.92173        19.24524         0.88651
C          4.73740        18.56853         0.75698
C          5.98876        20.71165         0.55739
C          4.69797        21.43508         0.89229
C          6.02737        23.55016         0.27664
C          4.73839        22.99084         0.68859
C          6.09001        25.03067        -0.00033
C          4.82833        25.64112        -0.54300
C          6.18357        27.59209        -1.32430
C          4.87993        26.94307        -1.03884
C          6.21442        29.15694        -1.46993
C          4.93054        29.83033        -1.31467
C          8.63894         3.47639        -0.06475
C          7.38536         4.15503         0.10341
C          8.61811         6.28423         0.68593
C          7.35670         5.58624         0.36897
C          8.63698         7.76539         0.51748
C          7.36125         8.44621         0.57889
C          8.61425        10.64579         0.36242
C          7.37554         9.91448         0.76606
C          8.54767        12.10529         0.02994
C          7.18368        12.79553        -0.02199
C          8.46438        14.97295         0.42842
C          7.25761        14.26021         0.30222
C          8.49016        16.38552         0.69535
C          7.21406        17.06208         0.91708
C          8.49728        19.25786         1.03403
C          7.20085        18.55668         1.14874
C          8.51925        20.66488         0.98336
C          7.25996        21.39602         1.03641
C          8.54914        23.26304        -0.07947
C          7.26594        22.92174         0.67352
C          8.61843        24.71182        -0.56162
C          7.35555        25.49917        -0.68279
C          8.65066        27.61900        -0.96631
C          7.43279        26.95977        -0.91387
C          8.68298        29.06739        -1.14350
C          7.50124        29.79929        -1.23052
C         11.10083         3.44545        -0.16432
C          9.88318         4.09707         0.10867
C         11.20550         6.23633         0.51060
C          9.91413         5.49253         0.62080
C         11.13000         7.75735         0.28192
C          9.81556         8.42814         0.18480
C         11.06993        10.67978        -0.35337
C          9.79149         9.87880        -0.15319
C         11.13436        12.06117         0.24131
C          9.84697        12.84824         0.25244
C         10.73797        14.99939         1.21845
C          9.70856        14.27548         0.62416
C         10.91451        16.39447         1.12242
C          9.68742        17.10923         0.94949
C         10.97047        19.20065         1.56136
C          9.69577        18.52512         1.09375
C         11.01559        20.66179         1.13648
C          9.79211        21.35849         0.94993
C         10.99996        23.43885         0.48552
C          9.79337        22.72819         0.58079
C         10.99096        24.85138         0.11494
C          9.88384        25.46750        -0.41632
C         11.09599        27.59270        -0.72003
C          9.89005        26.90670        -0.69810
C         11.14073        28.99973        -1.00548
C          9.96249        29.71736        -1.15659
C         13.57795         3.43356        -0.38970
C         12.36502         4.11934        -0.15825
C         13.62856         6.24858        -0.10154
C         12.41020         5.53122         0.06063
C         13.63539         7.67511        -0.15042
C         12.34966         8.36538        -0.30822
C         13.60841        10.56382        -0.39898
C         12.34834         9.90010        -0.53731
C         13.56839        11.99366        -0.16871
C         12.38734        12.59264         0.47991
C         13.65824        14.74398         0.81188
C         12.63623        13.88091         1.09648
C         13.49652        16.27546         0.68315
C         12.22883        17.03791         1.19618
C         13.53053        19.21388         1.49862
C         12.25348        18.41541         1.26776
C         13.50821        20.63356         0.92719
C         12.24491        21.35297         0.95625
C         13.46362        23.50002         0.30462
C         12.21795        22.74882         0.68039
C         13.44570        24.94765         0.79273
C         12.16250        25.73234         0.50870
C         13.61327        27.65518        -0.26229
C         12.38519        26.80888        -0.55703
C         13.61515        28.98044        -0.86433
C         12.44219        29.61617        -1.17462
C         16.05019         3.42749        -0.61079
C         14.82425         4.11541        -0.43860
C         16.07244         6.26674        -0.50982
C         14.84838         5.54693        -0.33655
C         16.06556         7.70509        -0.41485
C         14.85992         8.38716        -0.28452
C         16.11736        10.63651        -0.40807
C         14.87140         9.86783         0.01584
C         16.08455        11.99968        -0.49128
C         14.82373        12.76080        -0.28026
C         15.99668        14.95186        -0.21873
C         14.97517        14.06004         0.48650
C         16.09623        16.29849         0.49245
C         14.83882        16.95682         1.02130
C         16.08311        19.18931         0.79845
C         14.85066        18.45498         1.23220
C         15.96958        20.59990         0.27435
C         14.70144        21.32778         0.66750
C         15.95918        23.45904         0.63739
C         14.73378        22.74303         0.56215
C         15.96892        24.86251         0.86067
C         14.72739        25.70632         0.86373
C         15.96897        27.93283         0.34831
C         14.72347        27.15351         0.39595
C         16.12543        29.09169        -0.54853
C         14.91772        29.62866        -1.27625
C         18.52339         3.43167        -0.82068
C         17.26836         4.12853        -0.74155
C         18.52276         6.27707        -1.16907
C         17.26936         5.55320        -0.74499
C         18.61196         7.70289        -0.65444
C         17.35228         8.44621        -0.35283
C         18.58453        10.62220        -0.56121
C         17.38488         9.92953        -0.46686
C         18.59672        12.06630        -0.71208
C         17.28476        12.80597        -0.91263
C         18.48267        15.00943        -0.61678
C         17.30873        14.20811        -0.32450
C         18.51522        16.43258        -0.22319
C         17.32339        17.08979         0.19662
C         18.50459        19.23537         0.17584
C         17.30890        18.47735         0.33655
C         18.48615        20.67079         0.36990
C         17.25581        21.36136         0.49562
C         18.46287        23.46437         0.85899
C         17.22571        22.75355         0.67775
C         18.41843        24.82856         1.26456
C         17.15270        25.39666         1.39618
C         18.44816        27.87413         0.49290
C         17.09921        27.55310         1.02659
C         18.56960        29.32587         0.05787
C         17.31703        29.72440        -0.69784
C         19.73523         4.11807        -0.79375
C         21.00784         6.25837        -0.72996
C         19.78879         5.51934        -0.85888
C         21.07336         7.62262        -0.77647
C         19.86072         8.48275        -1.06425
C         21.09006        10.69340        -0.80416
C         19.90224         9.87276        -0.37311
C         21.04175        12.04074        -0.87479
C         19.78995        12.77097        -0.77803
C         21.01558        15.04169        -0.56620
C         19.80523        14.26198        -0.86374
C         20.96922        16.38989        -0.40010
C         19.73279        17.14222        -0.28692
C         20.93744        19.33701        -0.09588
C         19.73151        18.56156        -0.07160
C         20.93463        20.68077         0.16697
C         19.71892        21.39697         0.42037
C         20.91270        23.55868         0.95083
C         19.70477        22.78888         0.71512
C         20.90423        24.86103         1.31637
C         19.65189        25.67949         1.53033
C         20.94387        27.64798         0.39448
C         19.65818        26.97936         0.66493
C         20.98814        28.83783        -0.34023
C         19.86422        29.58932        -0.64897
O          2.17833         6.23179        -2.07918
O         13.93734        12.81166        -1.43647
O         10.17096        10.35404        -1.46895
O          4.68859        22.32997         2.01233
O          8.36498        10.38013         1.77300
O          5.36217        10.20424         2.09413
O          7.11138        17.61863         2.27299
O          7.89046        24.80443        -1.85454
O          5.94623        15.90657        -0.90792
O          6.23481        28.23483        -2.62275
O          1.56443        14.36854         2.24154
O         18.81904        26.90148        -0.55033
O         15.73084        16.24562         1.92385
O         15.84265        18.92828         2.21344
O         18.22256         7.87701         0.72178
O          7.27794        22.42686         2.04769
O         17.03189        26.62857         2.06058
O         12.22036         8.92685        -1.64035
O         13.97266        25.29593         2.09975
O         19.05009        14.79710        -2.00531
O         11.65212        14.30019         1.98298
O          9.28719        12.59544        -1.11318
O         11.42052         7.18703         1.59529
O          9.24699         5.71095         1.89542
O          1.55357        16.92901         2.24700
O          2.38962        26.53601        -2.87353
H          2.50386        27.35662        -3.39990
O         15.84607        20.41702        -1.17771
H         15.87324        21.30453        -1.59449
O          6.22684        25.60891         1.35203
H          5.33015        25.57966         1.77251
O         15.08661        29.42097        -2.69686
H         15.28637        28.47317        -2.84197
O         13.50548        19.45412         2.94917
H         14.44854        19.54742         3.23294
O          6.78841        12.73449        -1.43809
H          7.57922        13.00635        -1.96103
O         15.54471        13.63614         1.75289
H         15.66373        14.44591         2.30626
O         10.83221        19.21638         3.02293
H         11.72534        19.42534         3.39157
O         12.64424        26.15426        -1.82720
H         12.62459        26.83891        -2.52788
O         20.09524         9.62960         1.04652
H         20.03507        10.48874         1.51283
O         11.75501        26.41465         1.71318
H         12.45894        26.25448         2.38844
O         18.45406         6.38547        -2.64324
H         18.42891         5.47253        -3.00244
O         15.55681        15.22100        -1.58282
H         15.71786        14.39770        -2.11319
O         18.58480        30.15662         1.26925
H         19.45754        30.04154         1.70137
O         17.10037        13.00329        -2.36985
H         17.85954        13.57488        -2.65971
O         13.30646        16.46880        -0.75089
H         14.00642        15.96500        -1.24967
O         19.81681         8.74512        -2.48369
H         19.51021         7.92061        -2.93172
O          3.67225        19.23015        -1.23351
H          2.86779        19.62606        -1.63390
O          4.64486         3.94915         1.70456
H          5.42658         4.31870         2.16975
O         14.85827         9.94898         1.49272
H         15.68093         9.52220         1.81795
O          6.08699        20.76415        -0.90512
H          5.36622        20.19351        -1.27460
O         13.42457        23.64181        -1.16241
H         13.08024        22.80573        -1.54144
O          3.47299        25.69201         1.40980
H          2.73969        25.24125         1.88338
O          8.47471        22.43216        -1.28125
H          8.04441        22.97822        -1.98286
O         19.65472        26.14812         2.90237
H         19.56122        25.37181         3.49236
H          1.40144         2.42549        -1.35359
H         -0.75205         3.63221        -1.39140
H         -0.91132         6.01891        -0.84728
H         -0.90215         7.99054        -0.72171
H         -1.01571        10.36701        -0.20922
H         -1.03267        12.27281        -0.07399
H         -1.14781        14.64587         0.31732
H         -1.21667        16.64112         0.46878
H         -1.15141        19.04614         0.25240
H         -1.10280        20.93281        -0.07525
H         -1.06481        23.33000        -0.45887
H         -1.08174        25.23108        -0.80306
H         -1.00889        27.65672        -1.18219
H          0.32073        29.77519        -1.38364
H          3.70326         2.36367        -0.45974
H          2.49889        30.93100        -1.48163
H          6.20217         2.39190        -0.27559
H          4.91005        30.92349        -1.18987
H          8.61296         2.42492        -0.38811
H          7.53506        30.89608        -1.14626
H         11.07788         2.38086        -0.44155
H         10.00363        30.80121        -1.34078
H         13.56092         2.34162        -0.52192
H         12.47951        30.63056        -1.60083
H         16.05381         2.32801        -0.64828
H         14.84932        30.73722        -1.13050
H         18.51845         2.33288        -0.78896
H         17.37130        30.62381        -1.33034
H         20.67405         3.55197        -0.69583
H         21.93209         5.68408        -0.55592
H         22.05297         8.11058        -0.66377
H         22.05314        10.17954        -0.93787
H         21.95852        12.60339        -1.10390
H         21.98191        14.52381        -0.48284
H         21.91693        16.92058        -0.23399
H         21.89483        18.84622        -0.31583
H         21.88902        21.22429         0.15355
H         21.88350        23.04843         0.86929
H         21.86390        25.34349         1.55464
H         21.88648        27.16558         0.68436
H         21.97082        29.19063        -0.69073
H         19.96362        30.50795        -1.24514
