         429
 CSIRO Nanostructure Databank - Neutral Graphene Oxide Data Set
C          1.42746         3.54937        -1.72752
C          0.30890         4.24578        -2.15651
C          1.39625         6.37643        -1.65609
C          0.29460         5.64768        -2.13378
C          1.41232         7.82965        -1.63788
C          0.43214         8.58060        -2.30743
C          1.38476        10.71461        -1.60818
C          0.45972         9.98548        -2.34434
C          1.39341        12.17146        -1.59306
C          0.30960        12.91833        -2.11480
C          1.47749        15.02727        -1.72832
C          0.36754        14.29944        -2.21235
C          1.59662        16.47645        -1.95064
C          0.59133        17.22245        -2.60863
C          1.86669        19.29435        -2.36386
C          0.72849        18.58822        -2.81410
C          1.97225        20.74667        -2.48245
C          1.13749        21.43009        -3.37928
C          2.08249        23.53485        -2.66880
C          1.22608        22.80973        -3.50744
C          1.78965        25.80471        -1.91843
C          0.67926        26.63023        -2.14429
C          1.40447        28.06671        -0.31241
C          0.48992        27.74196        -1.34000
C          1.33499        29.39449         0.31312
C          0.27135        30.24546         0.05949
C          1.22554        32.07912         1.37219
C          0.22106        31.56141         0.59055
C          1.19686        33.44483         1.84603
C          0.02472        34.19629         1.90198
C          1.20770        36.33349         2.02087
C          0.02394        35.60451         2.01404
C          1.24562        37.75376         1.81282
C          3.73227         3.54877        -0.86441
C          2.56262         4.24732        -1.24111
C          3.66959         6.38995        -0.65459
C          2.54236         5.67948        -1.17141
C          3.62620         7.81983        -0.51079
C          2.47324         8.50538        -0.96090
C          3.57849        10.69372        -0.25258
C          2.36238         9.96195        -0.79796
C          3.76730        12.11650        -0.74804
C          2.50128        12.88269        -1.06815
C          3.62359        15.04119        -0.45527
C          2.51398        14.29382        -1.08859
C          3.78569        16.48809        -0.74950
C          2.76136        17.17454        -1.56003
C          4.03381        19.27629        -1.13043
C          2.89716        18.56983        -1.73025
C          3.98323        20.73798        -1.02859
C          2.92638        21.47121        -1.70200
C          3.82062        23.65756        -0.80829
C          2.92475        22.90291        -1.72652
C          3.90657        25.17586        -0.76675
C          2.65426        26.00698        -0.83254
C          3.48482        27.57188         0.96606
C          2.45327        27.15306        -0.02130
C          3.29955        28.88726         1.63553
C          2.37478        29.82101         1.23155
C          3.72834        32.00992         1.44824
C          2.42103        31.24523         1.77956
C          3.74923        33.39656         1.80256
C          2.48129        34.07132         2.17959
C          3.72668        36.32818         1.88440
C          2.48191        35.63027         2.21452
C          3.69765        37.73096         1.65750
C          2.42750        38.42440         1.66418
C          6.07720         3.50923        -0.20221
C          4.87286         4.22886        -0.42371
C          5.97452         6.36384         0.21029
C          4.84163         5.67301        -0.27402
C          5.98531         7.78148         0.31991
C          4.79450         8.52736        -0.01602
C          5.98471        10.65605         0.50040
C          4.81059         9.93752         0.07077
C          5.92288        12.07721         0.61140
C          4.72336        12.81643         0.17935
C          6.05712        15.01582         0.39580
C          4.77073        14.30996         0.16694
C          6.16941        16.37720         0.13598
C          5.17560        17.07821        -0.76770
C          6.14498        19.24516         0.22715
C          5.09437        18.57406        -0.60844
C          6.26725        20.71802        -0.08638
C          5.06991        21.41912        -0.47641
C          6.25603        23.57485         0.14553
C          5.00723        22.87508        -0.24333
C          6.24407        24.96497         0.37085
C          5.07411        25.78336        -0.06805
C          6.12540        27.83442         0.95049
C          4.88282        27.04415         0.74022
C          6.19528        29.19608         0.82045
C          5.05727        30.06580         0.35867
C          6.16889        32.07457         1.21978
C          4.92628        31.38618         1.06350
C          6.17929        33.46963         1.51193
C          4.93953        34.14817         1.75480
C          6.14907        36.32859         1.65580
C          4.94569        35.60922         1.81893
C          6.13558        37.73108         1.43751
C          4.89996        38.41460         1.41358
C          8.47270         3.45807         0.24673
C          7.24628         4.14522         0.21968
C          8.41640         6.27616         1.01909
C          7.16028         5.57492         0.62232
C          8.48542         7.80212         1.06841
C          7.17593         8.49261         0.68152
C          8.49925        10.55660         0.82318
C          7.19423         9.89207         0.74775
C          8.67973        11.81655         1.34099
C          6.85923        12.91608         1.28029
C          8.43708        14.92177         1.44321
C          7.11895        14.26418         0.99247
C          8.54949        16.33751         0.88062
C          7.40048        17.06176         0.46157
C          8.64740        19.15833         0.52689
C          7.44532        18.47439         0.30571
C          8.70034        20.62626         0.28050
C          7.44030        21.39906         0.16283
C          8.65722        23.53499         0.64325
C          7.46697        22.84837         0.27893
C          8.59319        24.88379         1.03064
C          7.38127        25.60181         0.89962
C          8.63021        27.74458         0.80856
C          7.37398        27.05011         1.35117
C          8.63693        29.21434         1.13889
C          7.43601        29.91224         1.08239
C          8.61898        32.05756         1.30734
C          7.41605        31.36050         1.17836
C          8.62692        33.48036         1.34598
C          7.41228        34.17056         1.50799
C          8.65258        36.33356         1.24323
C          7.46318        35.63147         1.85386
C          8.57946        37.75984         0.99546
C          7.36086        38.42395         1.14429
C         10.91709         3.43851         0.25716
C          9.71068         4.09124         0.51349
C         11.00101         6.25681         0.84547
C          9.71393         5.50610         0.97036
C         10.98116         7.71773         0.62143
C          9.65609         8.34331         0.21231
C         11.00509        10.59366         0.42444
C          9.69286         9.86769         0.27086
C         11.01285        11.99043         0.89054
C          9.82947        12.68392         1.16303
C         10.97906        14.86121         1.17908
C          9.76762        14.13110         1.24458
C         11.03831        16.29465         1.09492
C          9.78447        17.02286         0.95591
C         11.04297        19.13734         1.30940
C          9.82000        18.43046         0.80018
C         11.14686        20.58803         0.96238
C          9.98843        21.35970         0.46088
C         11.05137        23.42401         1.42268
C         10.02646        22.89864         0.44680
C         11.10539        24.87020         1.78190
C          9.80787        25.61028         1.52611
C         11.09562        27.71571         1.30156
C          9.88662        27.04652         1.26256
C         11.08847        29.17107         1.20486
C          9.88550        29.87806         1.27260
C         11.11777        32.04706         1.02463
C          9.91156        31.34602         1.59742
C         11.06745        33.48022         0.87773
C          9.86750        34.20235         1.16011
C         11.12782        36.39128         0.84425
C          9.83258        35.63040         1.04629
C         10.93227        37.76082         0.22963
C          9.72829        38.43044         0.46132
C         13.39290         3.43297         0.01134
C         12.18637         4.10861         0.25748
C         13.43991         6.21118         0.50282
C         12.23384         5.52205         0.48418
C         13.44393         7.63004         1.01847
C         12.18497         8.40069         0.66025
C         13.48728        10.51162         0.73399
C         12.24899         9.81981         0.58474
C         13.51979        11.90778         0.82422
C         12.28686        12.62779         1.15080
C         13.54907        14.85533         1.02123
C         12.27639        14.15094         1.30330
C         13.52059        16.25508         0.93151
C         12.29171        16.98636         1.01891
C         13.53739        19.17089         1.12139
C         12.34862        18.43079         1.07801
C         13.59609        20.59973         1.41373
C         12.28672        21.24562         1.36882
C         13.89391        23.62004         2.00264
C         12.05418        22.60196         1.80542
C         13.68159        24.94509         1.63231
C         12.40473        25.62181         1.67493
C         13.56660        27.74574         1.05421
C         12.36162        27.01001         1.42582
C         13.49285        29.15974         0.77647
C         12.32158        29.88066         0.98240
C         13.50516        32.02207         0.43283
C         12.28341        31.32773         0.80110
C         13.40558        33.43047         0.06303
C         12.18830        34.15512         0.33445
C         13.15747        36.18565        -0.61685
C         12.17504        35.57531         0.13650
C         13.13739        37.60630        -0.88394
C         12.00055        38.35463        -0.47003
C         15.86276         3.42779        -0.16273
C         14.63601         4.11664         0.02689
C         15.91677         6.22556         0.35153
C         14.66580         5.52729         0.28698
C         15.95112         7.64062         0.56526
C         14.72189         8.36827         0.70205
C         15.99465        10.45190         0.97433
C         14.72410         9.74898         0.74291
C         16.01117        11.95528         1.01963
C         14.77430        12.66754         0.52632
C         16.02040        14.79497         0.83265
C         14.76884        14.13598         0.87081
C         16.05661        16.22485         0.84428
C         14.78658        16.96209         0.68879
C         16.05657        19.17300         1.08658
C         14.79617        18.48567         0.79511
C         16.08403        20.57630         1.21768
C         14.83401        21.31695         1.42338
C         16.13082        23.46090         1.10916
C         14.97220        22.77704         1.54099
C         16.13462        24.90579         0.97127
C         14.96364        25.72137         1.48655
C         15.96855        27.76733         0.43816
C         14.78564        27.07886         0.88471
C         15.95977        29.13050         0.25784
C         14.65531        29.84356         0.10147
C         15.93476        32.07600        -0.03660
C         14.69419        31.34106         0.30181
C         15.83560        33.55151        -0.46571
C         14.42621        34.03844        -0.63901
C         15.29659        35.98739        -2.04114
C         14.08603        35.29410        -1.40576
C         15.33007        37.47891        -2.07859
C         14.20601        38.20109        -1.57784
C         18.33313         3.39523        -0.28072
C         17.09217         4.09794        -0.10090
C         18.38301         6.19600         0.17904
C         17.12817         5.51118         0.14681
C         18.42869         7.61000         0.37734
C         17.20503         8.33588         0.55178
C         18.48036        10.45475         0.73201
C         17.25556         9.73768         0.76059
C         18.49891        11.90344         0.79588
C         17.29382        12.65305         0.84395
C         18.51500        14.77667         0.78878
C         17.27359        14.06481         0.80269
C         18.51925        16.20792         0.84517
C         17.26764        16.91447         0.91343
C         18.62571        19.12791         1.03606
C         17.26329        18.36706         1.18002
C         18.52947        20.55748         0.74145
C         17.32747        21.26752         0.97515
C         18.48653        23.38196         0.42208
C         17.33564        22.71638         0.78709
C         18.58167        24.88562         0.42019
C         17.23971        25.57924         0.48086
C         18.15506        27.58301        -0.65102
C         17.18981        26.99386         0.13968
C         17.91366        28.98411        -1.20010
C         17.27701        29.79995        -0.08141
C         18.16131        31.87105        -1.31541
C         17.16895        31.28832        -0.38852
C         18.01684        33.24266        -1.71587
C         16.82311        33.93493        -1.54889
C         17.81051        35.99301        -2.71775
C         16.61276        35.24995        -2.19525
C         17.69575        37.52960        -2.95149
C         16.45941        38.16530        -2.50495
C         19.53328         4.05188        -0.22373
C         20.82501         6.16243         0.04671
C         19.59119         5.46627         0.00052
C         20.86561         7.52964         0.24411
C         19.67643         8.29442         0.40450
C         20.91562        10.46749         0.52764
C         19.70304         9.73330         0.56361
C         20.93322        11.84738         0.60501
C         19.73765        12.60428         0.71463
C         20.95682        14.78353         0.69744
C         19.74357        14.04972         0.73645
C         20.95826        16.16393         0.66510
C         19.75481        16.90758         0.72613
C         20.84495        19.02958         0.00930
C         19.77997        18.34946         0.58544
C         20.82143        20.43413        -0.10999
C         19.69840        21.18309         0.22291
C         20.27654        23.14502        -1.23162
C         19.78882        22.68367         0.13507
C         20.18141        24.43404        -1.58052
C         19.51703        25.42549        -0.69706
C         19.99912        27.41469        -2.35067
C         19.32781        26.84391        -1.15971
C         19.98900        28.76863        -2.55288
C         19.11842        29.64281        -1.82521
C         20.26269        31.72598        -2.60105
C         19.17216        31.05493        -1.90270
C         20.33719        33.07259        -2.70829
C         19.24296        33.92981        -2.22245
C         20.24895        36.16608        -3.25101
C         19.17946        35.41501        -2.57320
C         20.12988        37.54449        -3.38953
C         18.95788        38.24409        -3.07999
O          4.43356        29.80381        -0.66346
O         10.30375        10.44819        -0.92602
O          2.09346        24.89958        -2.93184
O          7.70668        12.31238         2.21655
O          4.97724        25.82949        -1.53338
O          2.54217        34.80847         3.42567
O          2.44533        10.45083         0.60633
O          7.51987         5.76989         2.05827
O         15.91498        11.22583         2.26142
O         10.51074         5.78753         2.17579
O         17.57834        36.50786        -4.02452
O          9.59644        20.87749        -0.89265
O         15.59703        35.27229        -3.28092
O         10.23207        25.24662         2.89681
O         20.38013        26.47226        -0.14753
O         12.92606        23.02241         2.81363
O         19.60905        34.97317        -1.23715
O          3.81064        23.18591         0.57584
O         17.04757        31.97364         0.93540
O         14.77480        17.81315        -0.52180
O         18.09723        18.72663         2.32713
O          4.09558        26.63019         1.93271
O         12.35364        13.29159         2.48191
O          4.20444        13.56754         1.31457
O          3.20855        16.08312         0.52097
O          5.63000        19.21254         1.60723
H          4.73032        19.60410         1.60338
O         15.35489        26.00693         2.89198
H         14.58769        26.43444         3.32985
O         18.16564        29.66373         1.04907
H         17.94312        30.38902         1.67568
O         13.23677        34.84953        -2.51814
H         13.84900        34.63033        -3.26103
O          9.39924         7.94323        -1.15639
H          9.82945         8.62368        -1.72526
O          8.55967        27.62289        -0.64207
H          9.33308        28.08608        -1.02669
O         16.90777        28.87371        -2.26763
H         17.33620        28.45342        -3.04361
O          4.49911        12.01450        -2.01301
H          3.88721        11.66608        -2.69549
O         10.05817        31.43728         3.06620
H         10.81972        30.87299         3.31997
O         14.35942        29.70436        -1.35768
H         15.18229        29.38843        -1.81128
O          7.71021        35.68385         3.31515
H          8.45281        35.07126         3.50782
O         11.65086        36.63260         2.19710
H         11.00091        37.19969         2.66444
O          5.66039        16.81590        -2.13266
H          6.52790        17.26200        -2.23437
O         10.82805        19.14928         2.77822
H         11.65087        19.47755         3.20089
O          8.33281        15.09259         2.88790
H          8.17105        14.20156         3.27085
O         14.92471        12.63210        -0.94683
H         14.19452        13.15489        -1.34112
O         20.78590        23.09155         1.11295
H         20.45195        23.91408         1.55527
O          4.11738        29.10225         2.70780
H          4.53723        28.23305         2.92339
O         10.45689        23.30813        -0.88079
H         10.09439        22.63829        -1.50774
O          7.45359        27.06235         2.79606
H          6.84152        26.38481         3.15111
O          2.40040        31.20465         3.22903
H          3.14380        30.63319         3.52269
O          8.79423         8.17445         2.42682
H          8.30643         7.55618         3.01492
O         19.22695        25.22916         1.69275
H         19.70840        26.07965         1.52934
O         13.44799         7.51066         2.47916
H         12.62148         7.04835         2.74123
O         16.28688        34.36624         0.67396
H         16.95551        33.81431         1.15016
H          1.44884         2.45091        -1.76382
H         -0.57122         3.70167        -2.52633
H         -0.60499         6.17051        -2.48506
H         -0.35779         8.06758        -2.87124
H         -0.28987        10.50284        -2.95859
H         -0.58740        12.40007        -2.47934
H         -0.47752        14.82528        -2.67624
H         -0.33236        16.73436        -2.94720
H         -0.09738        19.12802        -3.29682
H          0.43656        20.87733        -4.01761
H          0.60716        23.34987        -4.23469
H          0.01879        26.43409        -2.99841
H         -0.34635        28.41170        -1.57319
H         -0.57022        29.92880        -0.56808
H         -0.64066        32.19061         0.32420
H         -0.94072        33.69224         1.75230
H         -0.93551        36.13906         1.95364
H          0.29136        38.29876         1.76071
H          3.75936         2.45316        -0.95823
H          2.42970        39.51234         1.50535
H          6.10044         2.43355        -0.43253
H          4.88178        39.49687         1.21760
H          8.48381         2.40382        -0.07031
H          7.31168        39.50375         0.93717
H         10.89045         2.37683        -0.03243
H          9.61745        39.47415         0.12790
H         13.38181         2.34663        -0.16161
H         11.91307        39.40472        -0.78998
H         15.84633         2.34359        -0.34979
H         14.19710        39.29284        -1.71793
H         18.30172         2.31103        -0.46254
H         16.47677        39.25957        -2.38487
H         20.47499         3.49998        -0.35829
H         21.76147         5.60018        -0.08033
H         21.84468         8.02620         0.27298
H         21.87292         9.94051         0.42002
H         21.90471        12.35686         0.55818
H         21.92042        14.25815         0.67897
H         21.91916        16.69413         0.61942
H         21.73125        18.48221        -0.33962
H         21.71512        20.94882        -0.48800
H         20.76309        22.42143        -1.90377
H         20.59581        24.78479        -2.53790
H         20.70359        26.78821        -2.91468
H         20.66477        29.18893        -3.31318
H         21.08898        31.11605        -2.99156
H         21.21507        33.54557        -3.17066
H         21.23140        35.69186        -3.38066
H         21.02285        38.11871        -3.67834
H         18.97364        39.33874        -2.98653
