         324
 CSIRO Nanostructure Databank - Neutral Graphene Oxide Data Set
C          1.34589         3.80765        -1.87831
C          0.13808         4.47132        -1.87204
C          1.26588         6.62708        -1.60303
C          0.09635         5.87222        -1.71856
C          1.21894         8.06435        -1.36676
C          0.06049         8.69896        -0.96204
C          1.16217        10.83663        -0.45669
C          0.02573        10.05286        -0.53626
C          1.14535        12.15688         0.15054
C         -0.02152        12.83745         0.45905
C          1.12755        14.95036         1.00791
C         -0.02701        14.20286         0.85022
C          1.11392        16.40043         1.16024
C         -0.09364        17.10610         1.36131
C          1.08813        19.23638         1.46610
C         -0.10764        18.48629         1.47429
C          1.06120        20.70356         1.44502
C         -0.15075        21.40222         1.25680
C          1.05070        23.47744         0.85445
C         -0.15168        22.76669         1.00221
C          1.03160        24.85133         0.29370
C         -0.13964        25.73443         0.46588
C          1.13396        27.74351        -0.17433
C         -0.07129        27.07450         0.22087
C          1.16744        29.12867        -0.36907
C          3.80144         3.86020        -1.79668
C          2.56859         4.53379        -1.76597
C          3.76081         6.68992        -1.57970
C          2.54097         5.96784        -1.66299
C          3.79160         8.19099        -1.82662
C          2.44335         8.87231        -1.55104
C          3.72267        10.99566        -0.78440
C          2.41133        10.30551        -1.05095
C          3.70472        12.31444        -0.08950
C          2.42144        12.80177         0.49793
C          3.68203        15.00378         0.84533
C          2.42125        14.24906         0.98361
C          3.60636        16.45573         0.83201
C          2.32446        17.13775         1.13267
C          3.56835        19.24782         1.68592
C          2.31516        18.53348         1.33846
C          3.50140        20.75740         1.87145
C          2.26485        21.44875         1.46125
C          3.54695        23.54740         0.98202
C          2.28667        22.82345         1.10312
C          3.58894        24.82073         0.44695
C          2.35727        25.50021        -0.01671
C          3.70160        27.74660        -0.26885
C          2.39174        26.98247        -0.30766
C          3.65190        29.24409        -0.44907
C          2.36096        29.82544        -0.57342
C          6.25543         3.89768        -1.75867
C          5.00973         4.56743        -1.66636
C          6.22908         6.71273        -1.33426
C          4.98216         5.99874        -1.52153
C          6.21028         8.09980        -1.10207
C          4.98301         8.86737        -1.14275
C          6.12990        10.72633         0.09730
C          4.96135        10.17909        -0.71662
C          6.14219        12.21979         0.37723
C          4.95743        12.92461         0.44317
C          6.15615        15.03477         1.00959
C          4.91728        14.34224         0.75147
C          6.15431        16.42206         1.27048
C          4.93933        17.21623         1.04691
C          6.07823        19.26351         1.81272
C          4.89196        18.60302         1.53865
C          6.07425        20.74654         2.04327
C          4.78937        21.52679         1.98316
C          6.07569        23.50702         0.98610
C          4.80150        23.03411         1.68100
C          6.07845        24.84245         0.49771
C          4.84109        25.55581         0.35950
C          6.16434        27.55443         0.22234
C          4.88863        26.94760         0.16372
C          6.10543        29.61418        -0.60716
C          4.75262        30.02965        -0.83363
C          8.71037         3.91126        -1.80670
C          7.46745         4.59251        -1.64116
C          8.72211         6.64682        -1.09761
C          7.47024         5.99834        -1.36530
C          8.73698         8.04876        -0.82861
C          7.48589         8.80740        -0.95977
C          8.67411        10.81032         0.13959
C          7.45830        10.24487        -0.45420
C          8.59320        12.09442         0.74439
C          7.38500        12.84190         0.76234
C          8.56649        14.90472         1.45235
C          7.38793        14.25523         1.09314
C          8.55560        16.32215         1.85580
C          7.32626        17.12754         1.70009
C          8.60095        19.26694         2.06886
C          7.32552        18.52318         1.85265
C          8.62595        20.74499         1.77793
C          7.34348        21.50520         1.76751
C          8.50335        23.38413         0.57875
C          7.28212        22.81058         1.06543
C          8.51876        24.72025         0.10502
C          7.30974        25.46144         0.11600
C          8.51379        27.54134        -0.65530
C          7.34601        26.87545        -0.09864
C          8.47486        28.94049        -1.14389
C          7.25106        29.72678        -1.35094
C         11.13337         3.73732        -1.87753
C          9.93190         4.50795        -1.53570
C         11.12930         6.59627        -0.71956
C          9.94178         5.88987        -1.07737
C         11.12461         7.97333        -0.42729
C          9.91988         8.71858        -0.42910
C         11.10593        10.71898         0.47351
C          9.89886        10.09526         0.05771
C         11.12568        12.05316         0.94203
C          9.83532        12.67368         1.27520
C         11.12436        14.86518         1.53208
C          9.83379        14.17090         1.65609
C         11.08218        16.32397         1.38871
C          9.88884        17.03791         1.92735
C         11.13796        19.25492         1.52727
C          9.91454        18.53367         1.97933
C         11.04178        20.59227         1.15304
C          9.80191        21.32441         1.09016
C         10.89607        23.21876        -0.10020
C          9.72635        22.61752         0.57713
C         10.89591        24.63206        -0.51000
C          9.73115        25.37398        -0.37883
C         10.83411        27.29155        -1.55225
C          9.65939        26.75928        -0.83173
C         10.85698        28.79363        -1.86985
C          9.63871        29.54470        -1.57373
C         13.65187         3.37702        -1.45867
C         12.31253         3.84778        -1.20231
C         13.65014         6.49259        -0.72142
C         12.38721         5.92440        -0.51105
C         13.69699         7.92817        -0.41002
C         12.40568         8.53495         0.04449
C         13.62372        10.73343         0.58407
C         12.37462         9.97404         0.50323
C         13.60168        12.08713         0.93496
C         12.34464        12.75691         1.14550
C         13.60031        14.90834         1.31850
C         12.33737        14.18437         1.35907
C         13.63112        16.32264         1.32142
C         12.37671        17.08684         1.25812
C         13.61578        19.21141         1.27898
C         12.39882        18.55359         1.45429
C         13.61173        20.68248         1.19158
C         12.28021        21.36878         0.99744
C         13.49059        23.33167        -0.10843
C         12.24268        22.57096         0.12759
C         13.44707        24.54835        -0.76202
C         12.12266        25.10829        -1.27705
C         13.28942        27.27140        -1.79995
C         12.14121        26.61207        -1.45518
C         13.32452        28.69940        -2.11246
C         12.15642        29.44217        -2.02729
C         16.08602         3.42906        -1.40372
C         14.75677         4.13262        -1.12913
C         16.05727         6.14184        -1.17167
C         14.80001         5.58780        -0.91914
C         16.14404         8.26422        -0.63735
C         14.84139         8.69610        -0.19080
C         16.07150        10.59667         0.77281
C         14.85525        10.01753         0.42325
C         16.13707        12.06164         0.97317
C         14.84671        12.79646         1.09503
C         16.11127        14.88930         1.56589
C         14.83609        14.16434         1.29087
C         16.10893        16.30989         1.09068
C         14.84321        17.05864         1.20466
C         16.09024        19.16120         0.87886
C         14.84815        18.46507         1.07997
C         16.06935        20.63960         0.85647
C         14.80156        21.38023         0.66949
C         16.00433        23.27707        -0.41227
C         14.74786        22.65981         0.16887
C         15.91423        24.74617        -0.77551
C         14.67339        25.23868        -1.12537
C         15.78850        27.17951        -2.40024
C         14.55339        26.50129        -1.90551
C         15.77756        28.65044        -2.59828
C         14.56933        29.33558        -2.45354
C         18.47206         3.39589        -0.55304
C         17.31563         4.11804        -0.86498
C         18.48094         6.27039        -0.43218
C         17.32584         5.52877        -0.83664
C         18.56110         7.77221        -0.28594
C         17.33066         8.60015        -0.07143
C         18.60509        10.46996         1.08097
C         17.29434         9.72134         0.94561
C         18.62329        11.79159         1.60520
C         17.45326        12.71295         1.36753
C         18.67699        15.04723         1.74605
C         17.42173        14.19162         1.77510
C         18.67066        16.40805         1.34686
C         17.40745        17.05398         0.91627
C         18.58914        19.24391         0.78915
C         17.34272        18.53059         0.87288
C         18.60554        20.66291         0.26920
C         17.32697        21.35822         0.59995
C         18.34218        23.49082         0.66481
C         17.23463        22.80015         0.29912
C         18.25597        25.49062        -0.31832
C         17.15132        25.47538        -1.11993
C         18.39311        27.22115        -2.51808
C         17.12081        26.50600        -2.19792
C         18.27568        28.68461        -2.80093
C         17.00349        29.30938        -2.85166
C         19.61312         4.09022        -0.17361
C         20.80919         6.11312         0.47988
C         19.62554         5.50098        -0.09067
C         20.88563         7.43352         0.74600
C         19.82025         8.36165         0.32699
C         21.00599        10.26972         1.42565
C         19.79684         9.72124         0.96602
C         21.00508        11.47381         2.11962
C         19.82446        12.21996         2.20077
C         21.01619        15.35690         2.46110
C         19.85437        14.57933         2.35588
C         21.02002        16.65375         1.96929
C         19.84390        17.21020         1.42772
C         21.02024        19.40624         0.90345
C         19.81328        18.61533         1.00282
C         21.03257        20.77737         0.74374
C         19.81780        21.52369         0.63391
C         20.76616        23.87197         0.38251
C         19.68126        22.92143         0.65092
C         20.72964        25.12547        -0.15650
C         19.60853        26.10268        -0.54848
C         20.87928        27.59661        -2.15908
C         19.73934        26.62106        -2.02305
C         20.72209        28.87901        -2.58321
C         19.44068        29.44531        -2.86509
O         19.59110         8.39471        -1.12917
O          8.22306        21.54966         2.94215
O         14.96492        26.39225        -3.32353
O          6.23256        28.88706         0.59460
O          3.34702        19.87110         3.01196
O          9.31912        16.46870         3.12271
O         16.89203        21.17309         1.99698
O         12.98629        21.46656         2.27207
O          9.75905        13.12308         2.66665
O          1.60609        24.81698        -1.07309
O          3.77221        12.25998        -1.55861
O         11.50255        22.30062        -1.11656
O          9.38363        18.98736         3.27050
O          2.24017         9.99159        -2.47871
O         12.36254         8.84422         1.48572
O          7.54878         9.99258        -1.87008
O         16.74300        16.41702        -0.23559
O          4.34127        17.06668        -0.28705
O         19.87627        13.35306         3.01781
O          3.15866        27.20259        -1.53981
O         16.60177        14.58106         2.92851
O          2.53829        13.11164         1.91905
O         17.06244        12.65262        -0.04873
O         18.23328        24.86574         0.92632
O         16.12530         7.40266        -1.74212
O         10.56624        27.76523        -2.90371
O         12.28628         4.63135        -0.02460
O         17.77961        26.30183        -3.49403
O         11.52096        16.77877         0.06436
O          5.43405        21.22860         3.26433
O          4.03369         8.30607        -3.25377
H          3.65844         9.17493        -3.53150
O         16.02429         2.07334        -0.95305
H         15.82818         2.07663         0.00604
O         17.13316         9.07336         2.26625
H         16.98731         9.77536         2.93554
O          4.79400        23.71187         2.96844
H          5.27131        23.11985         3.59845
O         16.14071        22.63922        -1.74017
H         15.46393        23.02660        -2.33673
O         18.67533        20.55914        -1.18456
H         19.49825        20.07915        -1.41521
O          6.04061        10.08581         1.41671
H          5.42635        10.60518         1.97755
O         11.97471        24.55780        -2.62199
H         11.81691        23.58854        -2.51386
O         20.05818        25.46733        -2.81988
H         19.30577        25.33411        -3.44880
O         19.72853        27.25165         0.32573
H         19.56769        26.94067         1.24220
H          1.38371         2.71308        -1.97293
H         -0.80282         3.91246        -1.96976
H         -0.88435         6.36601        -1.70016
H         -0.87146         8.12491        -0.86995
H         -0.93128        10.43840        -0.15912
H         -0.99574        12.36513         0.27297
H         -1.00757        14.69291         0.92056
H         -1.04572        16.56275         1.41837
H         -1.07493        18.98849         1.60478
H         -1.11051        20.87023         1.26744
H         -1.11033        23.27381         0.82807
H         -1.08360        25.30096         0.82473
H         -0.97201        27.69214         0.35661
H          0.22065        29.68866        -0.35459
H          3.82240         2.76907        -1.93341
H          2.30815        30.90488        -0.77819
H          6.26873         2.81147        -1.93112
H          4.55069        30.98625        -1.34085
H          8.68731         2.86539        -2.14633
H          7.24929        30.39156        -2.22773
H         11.05434         3.04215        -2.72591
H          9.62044        30.61410        -1.83473
H         13.81753         2.36950        -1.87097
H         12.19264        30.53812        -2.12225
H         16.21174         3.37751        -2.52382
H         14.55504        30.42331        -2.62421
H         18.46358         2.29894        -0.60943
H         16.98142        30.40026        -3.00294
H         20.52792         3.53995         0.09003
H         21.62644         5.44345         0.78628
H         21.75324         7.81845         1.29888
H         21.95383         9.73255         1.29502
H         21.92382        11.86482         2.57461
H         21.90182        14.93868         2.95593
H         21.93048        17.25871         2.06517
H         21.98822        18.90150         1.02884
H         21.99445        21.30805         0.80956
H         21.78063        23.46274         0.53127
H         21.72288        25.57927        -0.31885
H         21.88596        27.21197        -1.93967
H         21.60427        29.52970        -2.67442
H         19.36998        30.52081        -3.08282
