         269
 CSIRO Nanostructure Databank - Neutral Graphene Oxide Data Set
C        -10.32676         0.50627        -0.54139
C         -9.87810         1.45428         0.55896
C         -8.55768         0.87519         1.18821
C         -7.24979         1.68870         1.04837
C         -5.95716         0.81456         1.11056
C         -4.69854         1.36498         0.48549
C         -3.51080         0.66346         0.52536
C         -2.27457         1.24614        -0.08359
C         -0.95098         0.54392        -0.02631
C          0.41425         1.25490        -0.09758
C          1.30383         0.62210        -1.17620
C          2.60666         1.36853        -1.42700
C          3.90359         0.59622        -1.43214
C          5.18325         1.26661        -0.98392
C          6.33165         0.50308        -0.92338
C          7.74090         1.03680        -1.03296
C          8.74780         0.45156        -0.13087
C          9.83255         1.15799         0.50222
C         10.95506         0.33173         0.98454
C         -9.74494         2.87072         0.11001
C         -8.54286         3.48447        -0.13394
C         -7.30770         2.58886        -0.20261
C         -6.03033         3.39430        -0.36603
C         -4.72527         2.73800        -0.04444
C         -3.56288         3.42304        -0.31064
C         -2.26561         2.72164        -0.40130
C         -0.96959         3.49640        -0.42401
C          0.31482         2.78922        -0.09894
C          1.56008         3.54577        -0.37424
C          2.60090         2.90654        -1.28942
C          4.00664         3.52315        -1.14778
C          5.17694         2.71615        -0.71329
C          6.20998         3.40122        -0.08173
C          7.34804         2.72186         0.60315
C          8.70229         3.43158         0.43309
C          9.84179         2.51494         0.78519
C         -8.52247         4.90239        -0.22252
C         -7.33450         5.66409        -0.31217
C         -6.07835         4.89049        -0.51645
C         -4.81311         5.61089        -0.18955
C         -3.55616         4.88734        -0.56134
C         -2.27339         5.66317        -0.63605
C         -0.95678         4.99189        -0.50627
C          0.19023         5.71565        -0.67040
C          1.49170         5.04386        -0.48094
C          2.76627         5.76508        -0.68641
C          4.04078         5.01031        -0.90522
C          5.17761         5.63927        -0.21092
C          6.24418         4.83964         0.16152
C          7.35108         5.42988         0.93251
C          8.48745         4.70302         1.22974
C         -7.31406         7.04387        -0.17106
C         -6.07282         7.86158        -0.44070
C         -4.82439         7.08887        -0.03825
C         -3.52695         7.84629        -0.04439
C         -2.25792         7.12050        -0.27876
C         -1.07370         7.93101        -0.71431
C          0.20597         7.18821        -0.95862
C          1.50678         7.97223        -0.97129
C          2.81076         7.24270        -0.90070
C          3.99822         7.84264        -0.23781
C          5.08321         7.04535         0.13320
C          6.17077         7.61062         0.91152
C          7.22409         6.81316         1.32150
C         -5.99051         9.24042         0.18917
C         -4.82893         9.91830         0.21368
C         -3.56671         9.32930        -0.39440
C         -2.24390         9.97400         0.00444
C         -1.07034         9.33847        -0.21463
C          0.26866         9.86153         0.26637
C          1.45956         9.47596        -0.65134
C          2.75258         9.96388        -0.01720
C          3.90203         9.22713         0.17372
C          5.04684         9.79042         0.87128
C          6.10819         9.02080         1.23342
C        -10.34533        -0.80580        -0.28985
C         -9.85548        -1.35291         1.04014
C         -8.56823        -0.60257         1.48377
C         -7.29354        -1.39738         1.90804
C         -5.97246        -0.65292         1.54343
C         -4.66947        -1.46821         1.45210
C         -3.40758        -0.72726         1.04916
C         -2.15169        -1.54640         0.73779
C         -0.81197        -0.81006         0.62315
C          0.31310        -1.58877        -0.14597
C          1.29064        -0.88038        -1.10190
C          2.51693        -1.65930        -1.55722
C          3.90032        -0.94297        -1.70360
C          5.02792        -1.70233        -1.03375
C          6.33659        -0.97240        -1.05441
C          7.54454        -1.72364        -0.56913
C          8.61507        -0.99401         0.22657
C          9.97191        -1.71603        -0.01882
C         11.04383        -0.99253         0.75867
C         -9.72506        -2.84569         0.94027
C         -8.60572        -3.54416         1.16658
C         -7.31616        -2.88774         1.51844
C         -6.06067        -3.64581         1.18431
C         -4.65349        -3.03491         1.34014
C         -3.73702        -3.48775         0.17532
C         -2.30505        -2.98452         0.37134
C         -1.12895        -3.76350        -0.10646
C          0.18077        -3.06996        -0.31248
C          1.12859        -3.87075        -1.20442
C          2.47739        -3.16685        -1.49643
C          3.75588        -3.95084        -1.30440
C          5.02163        -3.19526        -1.01731
C          6.38458        -3.89447        -1.21079
C          7.50434        -3.20316        -0.46442
C          8.68054        -3.88401        -0.11049
C          9.82899        -3.17775         0.27659
C         -8.65488        -5.06019         1.23189
C         -7.50742        -5.69086         0.42840
C         -6.16268        -5.01300         0.58397
C         -5.04306        -5.70429         0.23320
C         -3.76793        -5.00677        -0.07012
C         -2.52389        -5.81356        -0.37063
C         -1.20811        -5.11803        -0.23888
C          0.04321        -5.91791        -0.18846
C          1.38256        -5.19584        -0.45507
C          2.43259        -6.06388        -1.18540
C          3.74869        -5.30857        -1.17623
C          4.99926        -6.10819        -1.04044
C          6.32079        -5.41219        -0.97602
C          7.47093        -6.11807        -0.33162
C          8.79854        -5.38819        -0.31653
C         -7.46542        -7.18526         0.58006
C         -6.30859        -7.89800         0.53540
C         -5.02138        -7.18050         0.39998
C         -3.76593        -7.96271         0.23059
C         -2.59392        -7.36331        -0.51882
C         -1.32978        -8.12740        -0.16942
C         -0.04011        -7.41616        -0.19629
C          1.15035        -8.08309        -0.82521
C          2.48358        -7.44700        -0.45674
C          3.67837        -8.33323        -0.72306
C          4.95608        -7.57815        -0.67666
C          6.02160        -8.07917         0.27485
C          7.36264        -7.39519         0.10013
C         -6.26729        -9.34885         0.60056
C         -5.11707       -10.06865         0.45986
C         -3.82598        -9.45222         0.25233
C         -2.64495       -10.14776         0.23314
C         -1.35796        -9.46491         0.16346
C         -0.16067       -10.26863         0.48211
C          1.11456        -9.88372         0.62589
C          2.41640        -9.82343         0.90500
C          3.52551        -9.77359        -0.17410
C          4.86979       -10.30565         0.28445
C          6.00167        -9.58736         0.37215
O         -4.06805        -7.41616         1.54204
O          5.55332        -7.58858         1.57917
H          6.15162        -7.94281         2.26988
O         -1.55561         2.96574        -1.66034
O         -1.74792         0.46680        -1.22927
O          0.65887        -0.14161        -2.20323
O          1.03249        -8.78101        -1.83460
O         -0.66160         7.62387        -2.06883
O          1.17695         3.24218         0.99717
O         -3.75826        -0.94290         2.45004
O          4.29525         4.47092        -2.23220
O        -10.88508        -1.12785         2.04127
H        -10.47601        -1.27548         2.92071
O         -2.00304        -2.59175         1.74878
O          2.06288         3.36701        -2.55229
H          2.64238         3.01830        -3.26677
O          4.82322        -2.40362         0.22198
O          7.16706         1.84353         1.44340
O         -3.32857        -5.22769        -1.46076
O         -6.64900        -3.69955         2.54461
O          2.32330        -2.45941        -2.76056
O          3.12579       -10.61014        -1.26706
H          2.35805       -10.18380        -1.71714
O         -8.82661         0.39701         2.53057
O         -5.76224         0.42861         2.50472
O          4.52379        -8.29889        -1.88771
O          3.31389         1.14929        -2.67620
O         -2.67441         7.47136         1.07610
O          1.19847         0.89542         1.05589
H          0.81364         1.29269         1.86623
O          2.01748        -6.28272        -2.54324
H          2.65760        -6.89791        -2.96506
O          2.25643         5.57625         0.68116
O          7.40601        -1.35096        -1.99344
O         -3.02329         5.34122        -1.85251
O          0.93155        -2.49830         0.81342
O         -4.11597        -3.59747         2.53039
H         -4.75800        -3.43574         3.25624
O          1.98988        -4.87700         0.80449
H          1.40935        -4.28060         1.32444
O         -7.32514        -1.44330         3.34377
H         -7.19989        -0.52089         3.66215
O         -4.92389         6.22280         1.13582
O         -9.07935        -6.02494        -1.34926
H         -8.81601        -6.73377        -1.98544
O          2.65230        -7.29873         0.95999
H          1.88879        -6.80147         1.35010
O         -3.67168         9.38616        -1.83731
H         -3.91001        10.29847        -2.09995
O         -4.27938        -2.85236        -1.00021
H         -3.97363        -3.36992        -1.78181
O          2.32811         7.74646        -2.17792
O         -6.03725         8.05440        -1.88408
H         -5.93987         7.18010        -2.31760
O         -7.42450         1.70535        -1.33789
H         -7.19025         2.23069        -2.13564
O         10.28436        -1.58630        -1.42973
H          9.46677        -1.71782        -1.95979
O        -10.91232         1.50901         1.55023
H        -11.06696         0.59044         1.89112
O         -7.80938        -5.39514        -1.03433
O          6.72762        -3.72141        -2.61030
H          6.29860        -4.46188        -3.10382
O          5.87875        -6.03211        -2.23622
O          8.00506         1.81691        -1.95776
O          0.42734        -4.12598        -2.42136
H          1.04375        -4.56286        -3.05077
O         -6.00769         4.04523        -1.69900
O          0.15118        -6.67633         1.07123
O          1.26425        10.19029        -1.88864
H          1.75434         9.69518        -2.58344
O         -2.87425        -7.64749        -1.91321
H         -2.22813        -7.16818        -2.47239
O         -8.62327        -5.50057         2.58840
H         -7.86842        -5.04287         3.02897
O          4.29644        -1.07913        -3.07955
H          3.69382        -0.52681        -3.62613
O          8.31491        -1.12500         1.63598
H          7.85517        -0.30806         1.93192
O         -7.17272         2.59746         2.15333
H         -7.14267         2.05806         2.97411
O          9.43826        -5.58436        -1.59052
H          8.86982        -5.17936        -2.28004
O         -0.41086        -0.61797         1.98526
H         -0.51250        -1.48796         2.43553
O          8.91364         3.94881        -0.90362
H          8.90240         3.19726        -1.54917
O          0.48803         9.28622         1.55999
H          1.37869         9.55534         1.86940
H         11.91633        -1.56068         1.11582
H         11.75346         0.85039         1.53746
H         10.72938         2.94101         1.27916
H          9.29753         5.14266         1.83232
H          8.04105         7.26140         1.90754
H          6.94782         9.46463         1.78858
H          5.01826        10.85686         1.13932
H          2.75832        11.02061         0.29709
H          0.23368        10.98432         0.34907
H         -2.25062        10.98469         0.44399
H         -4.78583        10.92288         0.66423
H         -6.90309         9.68417         0.61651
H         -8.26919         7.57153        -0.02250
H         -9.48184         5.43100        -0.11278
H        -10.65978         3.48017         0.16481
H        -10.69138         0.90769        -1.49822
H        -10.71605        -1.52186        -1.03880
H        -10.66315        -3.38361         0.73257
H         -9.61951        -5.41320         0.79102
H         -8.42925        -7.70652         0.68296
H         -7.22036        -9.87502         0.75899
H         -5.15649       -11.16692         0.51452
H         -2.65104       -11.24294         0.34294
H         -0.35875       -11.35212         0.59838
H          2.72504        -9.66199         1.95461
H          4.92160       -11.39676         0.42582
H          6.94196       -10.09323         0.64618
H          8.24709        -7.88832         0.53765
H          9.47163        -5.83330         0.45830
H         10.69379        -3.73694         0.66815
