         420
 CSIRO Nanostructure Databank - Neutral Graphene Oxide Data Set
C         28.13440        27.49883        -1.23766
C         28.07487        28.88015        -0.89951
C         26.80988        29.57741        -0.86078
C         27.90274        31.54527         0.12980
C         26.71228        30.82705        -0.34045
C         27.88400        33.11435         0.26837
C         26.67563        33.86800        -0.07817
C         27.97085        35.93659        -0.28709
C         26.73460        35.18964        -0.37546
C         28.02170        37.32916        -0.49794
C         26.84018        38.12219        -0.78718
C         28.27134        40.07371        -1.36278
C         26.92871        39.42752        -1.12232
C         28.23821        41.58119        -1.29261
C         27.18054        42.25994        -1.91376
C         28.15219        44.40037        -1.31413
C         27.13727        43.64880        -1.94189
C         28.16098        45.84321        -1.44913
C         30.51944        27.43125        -0.72822
C         29.31280        26.79160        -1.14050
C         30.49557        28.83653        -0.48535
C         29.25761        29.55831        -0.54399
C         30.39594        31.67417         0.03182
C         29.21863        30.94297        -0.12471
C         30.39602        33.09587         0.21544
C         29.17221        33.80932         0.17227
C         30.40242        35.93307         0.20499
C         29.17881        35.21970         0.00381
C         30.39430        37.33614         0.19066
C         29.25378        38.04025        -0.27346
C         30.49061        40.18137        -0.10201
C         29.33551        39.43699        -0.50977
C         30.46496        41.62885        -0.17882
C         29.29978        42.31127        -0.69910
C         30.22824        44.52553         0.06373
C         29.22054        43.73380        -0.67477
C         30.20079        46.04956        -0.07568
C         29.15695        46.61343        -0.95504
C         32.99107        24.60743        -0.56152
C         31.89974        25.32455        -0.88813
C         32.85000        27.39887         0.02906
C         31.74096        26.72103        -0.50315
C         32.87928        28.82483         0.07280
C         31.69771        29.52999        -0.18964
C         32.92661        31.70875         0.12053
C         31.69277        31.01968        -0.38374
C         32.90573        33.10540         0.27261
C         31.64579        33.82127         0.27398
C         32.88282        35.96835         0.50198
C         31.64241        35.22072         0.37728
C         32.87425        37.36413         0.62361
C         31.54841        38.07083         0.80490
C         32.77107        40.27919         1.00812
C         31.58909        39.53070         0.46443
C         32.81512        41.72397         0.59518
C         31.60138        42.36050         0.25038
C         32.80211        44.60519         0.58290
C         31.49504        43.81924         0.45500
C         32.79064        46.10553         0.43448
C         31.45852        46.85140         0.16688
C         32.78317        48.86558        -0.32819
C         31.59569        48.20526        -0.38194
C         35.42166        23.09545         0.17338
C         35.37549        24.48680         0.24628
C         34.00311        25.11525         0.43736
C         35.34337        27.38340         0.58520
C         34.03189        26.64090         0.49499
C         35.34839        28.84618         0.35475
C         34.14283        29.53835         0.23640
C         35.36956        31.69164         0.28688
C         34.13802        30.98197         0.21010
C         35.37075        33.11871         0.32835
C         34.13604        33.82906         0.38159
C         35.35750        35.97315         0.51724
C         34.13051        35.25412         0.47272
C         35.35790        37.40103         0.65878
C         34.09406        38.12299         0.73406
C         35.29974        40.30289         1.00271
C         34.06707        39.52244         0.82606
C         35.32211        41.75076         0.69026
C         34.05454        42.45305         0.61187
C         35.28164        44.53408         0.04583
C         34.04344        43.84425         0.40515
C         35.28589        46.06495        -0.08681
C         34.03355        46.81597         0.11830
C         35.29827        48.92162        -0.06810
C         34.03325        48.19633        -0.04715
C         35.33175        50.33050        -0.15831
C         37.85880        23.09989         0.05482
C         36.62926        22.40762         0.07090
C         37.85636        24.51475         0.18201
C         36.60204        25.23158         0.29373
C         37.87379        27.37756         0.74072
C         36.60175        26.63203         0.44864
C         37.83749        28.83956         0.34962
C         36.60744        29.54327         0.31327
C         37.83353        31.68461         0.17690
C         36.60315        30.97207         0.25413
C         37.84039        33.13162         0.19837
C         36.60849        33.83678         0.31387
C         37.82470        35.98641         0.37636
C         36.59664        35.26535         0.41038
C         37.81980        37.40867         0.48187
C         36.58589        38.09101         0.68385
C         37.85333        40.27753         0.59961
C         36.62984        39.53653         0.94866
C         37.81155        41.70333         0.49917
C         36.55207        42.41925         0.52230
C         37.73758        44.58860         0.17323
C         36.56181        43.85017         0.27108
C         37.75181        46.03462         0.15394
C         36.55439        46.77186         0.09830
C         37.73779        48.94802         0.23071
C         36.52928        48.22162         0.11747
C         37.75332        50.36486         0.13272
C         36.52113        51.03337        -0.07540
C         40.33765        20.28301        -0.33847
C         39.14609        20.96752        -0.20074
C         40.33719        23.10173        -0.10917
C         39.11470        22.38038        -0.08300
C         40.34020        24.53341         0.00094
C         39.10142        25.24076         0.16484
C         40.33011        27.36684         0.19789
C         39.11514        26.64760         0.29068
C         40.32181        28.80492         0.19354
C         39.05474        29.53637         0.19190
C         40.28969        31.69774        -0.10073
C         39.03586        30.95172         0.06646
C         40.30905        33.15973         0.09263
C         39.07057        33.85642         0.15424
C         40.27793        36.02472         0.17902
C         39.06431        35.29259         0.22799
C         40.28510        37.42339         0.27743
C         39.05064        38.13780         0.40594
C         40.29128        40.29216        -0.04698
C         39.03970        39.56333         0.38616
C         40.28415        41.75036         0.31949
C         39.04352        42.40903         0.33386
C         40.31588        44.62582         0.22421
C         39.01958        43.86427         0.10937
C         40.22327        46.08486         0.43829
C         39.00183        46.73444         0.33848
C         40.24823        48.87471         0.16504
C         38.98187        48.21355         0.65937
C         40.25655        50.37436         0.03666
C         38.99730        51.10856         0.21447
C         40.29422        53.17337         0.37023
C         39.07197        52.49992         0.37561
C         42.80776        20.28378        -0.49855
C         41.56968        20.97955        -0.36181
C         42.81649        23.10515        -0.25673
C         41.57381        22.39764        -0.24454
C         42.81789        24.52854        -0.13458
C         41.57144        25.24052        -0.01665
C         42.80674        27.38594         0.04158
C         41.57374        26.66694         0.06950
C         42.79104        28.80094         0.12022
C         41.54211        29.48345         0.15793
C         42.78269        31.67352         0.53454
C         41.57725        30.95142        -0.01368
C         42.77641        33.14921         0.22788
C         41.54972        33.83092         0.11406
C         42.73833        35.95928         0.65123
C         41.58588        35.32390        -0.12030
C         42.76811        37.45452         0.46533
C         41.55450        38.15145         0.32499
C         42.75831        40.28511         0.50097
C         41.56244        39.56906         0.29973
C         42.73071        41.71898         0.67195
C         41.52537        42.44047         0.52619
C         42.67608        44.59170         0.95539
C         41.53883        43.88872         0.62895
C         42.66216        46.06340         1.03286
C         41.44834        46.80663         0.67368
C         42.75595        48.89871         0.42104
C         41.51308        48.18426         0.48744
C         42.75579        50.33390         0.24358
C         41.54181        51.06598         0.18859
C         42.78636        53.16322         0.30321
C         41.53666        52.47912         0.28012
C         43.99792        20.96500        -0.51390
C         45.28507        23.10464        -0.39852
C         44.04247        22.38884        -0.39249
C         45.28696        24.52463        -0.26783
C         44.04961        25.23265        -0.13964
C         45.27747        27.35774        -0.10421
C         44.05910        26.66575        -0.05994
C         45.27128        28.82825        -0.21897
C         44.02017        29.56714         0.04331
C         45.28082        31.71032         0.13418
C         44.05424        30.94768         0.16530
C         45.25517        33.10751         0.19822
C         44.02286        33.84745         0.24053
C         45.25865        35.98541         0.43481
C         44.04613        35.26552         0.34635
C         45.23776        37.41838         0.58486
C         43.99799        38.14906         0.55905
C         45.23732        40.28532         0.73859
C         44.00121        39.57803         0.61830
C         45.26502        41.71027         0.93323
C         43.95733        42.38369         1.13800
C         45.21755        44.64278         1.11220
C         43.94512        43.92472         1.30152
C         45.24553        46.00148         0.82805
C         43.99693        46.79612         0.94930
C         45.22107        48.87309         0.34001
C         43.98070        48.20917         0.54059
C         45.23075        50.29310         0.18211
C         43.99428        51.03748         0.21891
C         43.97018        52.46214         0.23319
C         47.72695        23.11686        -0.49835
C         46.53755        22.43318        -0.52578
C         47.76437        24.53558        -0.34472
C         46.52710        25.23949        -0.24491
C         47.76809        27.35925         0.00964
C         46.52749        26.66566        -0.13380
C         47.80245        28.80637         0.22120
C         46.57613        29.57168        -0.07967
C         47.71159        31.67101         0.59432
C         46.54968        31.01376         0.22268
C         47.76408        33.10775         0.53424
C         46.55379        33.84199        -0.01850
C         47.71258        35.97392         0.57644
C         46.51266        35.29325         0.38582
C         47.69689        37.41093         0.66673
C         46.45906        38.12866         0.64770
C         47.69323        40.27540         0.71686
C         46.46282        39.56335         0.71924
C         47.71299        41.71725         0.80190
C         46.46503        42.41636         0.99698
C         47.73487        44.61855         0.89880
C         46.49895        43.89307         1.40521
C         47.71842        45.96872         0.57340
C         46.46875        46.70549         0.55984
C         47.66957        48.81700         0.08773
C         46.45261        48.11960         0.33741
C         47.65023        50.22351        -0.05598
C         46.47424        50.94528         0.00817
C         50.27860        24.57071        -0.36130
C         48.99764        25.25141        -0.24068
C         50.27153        27.40397         0.19486
C         48.97734        26.63766         0.01370
C         50.09974        28.62201         1.13508
C         48.90988        29.44758         0.69649
C         50.20992        31.59695         0.93115
C         48.88509        30.88757         1.15226
C         50.21030        33.09269         1.16186
C         48.95012        33.79548         0.69477
C         50.18753        35.92052         0.71409
C         48.97809        35.24388         0.63614
C         50.17460        37.39174         0.82061
C         48.90714        38.12701         0.70099
C         50.11794        40.24815         0.30268
C         48.91300        39.54624         0.65012
C         50.10786        41.69722         0.23900
C         48.93537        42.40784         0.66420
C         50.27360        44.59510         0.55129
C         49.03508        43.86716         1.09485
C         50.18585        46.00364         0.12333
C         48.94853        46.68611         0.22374
C         50.10173        48.73680        -0.42755
C         48.91117        48.08007        -0.03570
C         51.43821        25.15006         0.01978
C         52.71377        27.18761         1.03120
C         51.43158        26.50542         0.61438
C         52.71568        28.70086         1.13862
C         51.40959        29.43386         1.16733
C         52.64811        31.57722         0.59290
C         51.38396        30.89922         0.88043
C         52.62576        33.02916         0.48586
C         51.47834        33.77183         0.69273
C         52.61908        35.92198         0.24569
C         51.47001        35.22622         0.58995
C         52.75665        37.43033         0.27046
C         51.45037        38.16218         0.52162
C         52.30382        40.12001        -0.82366
C         51.28738        39.53001         0.03018
C         52.28635        41.65805        -0.94045
C         51.27675        42.36417        -0.16600
C         52.51874        44.49325        -0.73714
C         51.44819        43.80802         0.01687
C         52.54018        45.89555        -0.76840
C         51.34658        46.64976        -0.37680
C         51.27546        48.03910        -0.62576
C         55.00726        27.20165         0.13759
C         53.99499        26.52109         0.72963
C         54.97066        28.63277        -0.03495
C         54.02079        29.43842         0.82611
C         54.97476        31.49915        -0.26497
C         53.81876        30.86602         0.34319
C         55.03690        32.94981        -0.33325
C         53.91849        33.70271         0.25053
C         54.98883        35.82315        -0.73172
C         53.91258        35.22763         0.08350
C         54.77181        37.17133        -1.32783
C         53.55415        37.95671        -0.91482
C         54.61861        40.07751        -1.72637
C         53.55562        39.41944        -1.13500
C         54.62540        41.54669        -1.82407
C         53.54693        42.30694        -1.33085
C         54.73500        44.40489        -1.81490
C         53.59615        43.73253        -1.28758
C         54.76190        45.82657        -1.79344
C         53.69326        46.54461        -1.30574
C         55.93013        29.28941        -0.76765
C         55.97020        30.70780        -0.82714
C         56.12370        33.64742        -0.82349
C         56.08237        35.05502        -1.05192
C         55.88293        37.95756        -1.88833
C         55.79288        39.29709        -2.08484
C         55.75606        42.25256        -2.33258
C         55.80384        43.63012        -2.34199
O         39.81165        44.22307        -1.09687
O         27.75263        32.21783         1.41224
O         41.09327        31.34933        -1.32593
O         43.32160        46.57669         2.23782
O         43.84886        43.02998         2.44801
O         34.53014        27.06419         1.80908
O         51.73497        40.80254        -1.99543
O         36.03996        39.94262         2.22629
O         46.01198        29.29210        -1.41397
O         51.85539        26.53815         2.01998
O         53.51792        37.17215        -2.13892
O         51.02055        37.94563         1.90403
O         52.15985        29.16818         2.41260
O         40.20289        49.45298        -1.15767
O         29.66839        45.38136         1.10724
O         54.35186        34.59414         1.32974
O         35.21449        45.19822        -1.28270
O         32.02131        46.74389         1.49848
O         51.42558        44.31052         1.42206
O         32.03384        44.18116         1.75708
O         50.64628        27.97103        -1.09654
H         50.39496        27.33549        -1.79907
O         32.59382        40.33298         2.50308
H         32.09296        41.15205         2.71269
O         48.68147        30.84128         2.61479
H         49.09756        30.00067         2.93321
O         37.96676        27.41061         2.22372
H         37.84934        26.49097         2.54488
O         31.75711        31.20989        -1.85557
H         31.00577        30.71069        -2.24240
O         46.74772        33.86246        -1.48303
H         46.63508        32.94250        -1.80596
O         41.86795        35.52822        -1.53143
H         41.18998        35.04949        -2.05223
O         28.63844        39.75200        -2.75969
H         28.62659        38.77447        -2.84290
O         42.65100        31.55985         1.99279
H         43.36538        32.09237         2.40222
O         33.52730        24.65502         1.73747
H         33.88439        25.29299         2.39826
O         42.47052        35.71854         2.06869
H         43.14122        36.20708         2.59060
O         54.71865        29.58261         2.09992
H         54.03126        29.81466         2.76631
O         53.60830        37.73190         1.41289
H         53.06890        37.56244         2.21875
O         49.23018        43.78599         2.55021
H         50.20886        43.74977         2.69141
O         39.04261        48.33085         2.12176
H         38.25398        47.88399         2.49507
O         50.19801        33.22562         2.62618
H         49.57438        32.53679         2.96602
O         31.27624        38.00186         2.26076
H         31.80998        38.72753         2.68032
O         40.24853        40.28498        -1.53326
H         39.62283        40.98776        -1.81311
O         46.58355        43.88311         2.86745
H         47.52680        43.71135         3.10841
O         49.78996        28.19728         2.47605
H         50.62721        27.82138         2.85095
H         27.20799        26.98538        -1.53306
H         25.90666        29.04179        -1.18788
H         25.72743        31.29877        -0.21970
H         25.70614        33.35139        -0.06593
H         25.80600        35.71742        -0.63159
H         25.84809        37.65852        -0.69303
H         26.01148        40.00245        -1.31404
H         26.38836        41.68960        -2.41770
H         26.31735        44.16903        -2.45655
H         27.36535        46.30220        -2.05447
H         29.31188        25.71451        -1.35571
H         29.16356        47.68899        -1.17822
H         33.08752        23.57276        -0.92136
H         31.13636        24.87630        -1.54063
H         32.81102        49.91071        -0.66427
H         30.71464        48.72588        -0.78055
H         34.48559        22.52166         0.20999
H         34.40081        50.89605        -0.29457
H         36.60096        21.31311         0.00420
H         36.50186        52.12719        -0.17316
H         40.33761        19.18731        -0.42861
H         38.21270        20.39048        -0.18394
H         40.30751        54.26825         0.46799
H         38.15067        53.08636         0.50044
H         42.79496        19.18818        -0.59082
H         42.79634        54.26101         0.36123
H         44.93017        20.39518        -0.62015
H         44.91338        53.02452         0.23116
H         48.66294        22.54919        -0.58091
H         46.56555        21.34151        -0.63735
H         48.58477        50.77622        -0.21261
H         46.51916        52.03592        -0.10596
H         50.30190        23.54735        -0.75975
H         50.10128        49.81464        -0.63052
H         52.38211        24.59032        -0.03798
H         52.15465        48.58610        -0.98830
H         55.90955        26.66515        -0.19315
H         54.07409        25.44049         0.90881
H         55.64626        46.35119        -2.18271
H         53.75174        47.64075        -1.31625
H         56.69219        28.71133        -1.31104
H         56.80596        31.17593        -1.36401
H         57.01249        33.10814        -1.17864
H         56.91546        35.49663        -1.61732
H         56.83538        37.45089        -2.10168
H         56.66828        39.81742        -2.49626
H         56.60882        41.69727        -2.74443
H         56.68163        44.14552        -2.75772
