         349
 CSIRO Nanostructure Databank - Neutral Graphene Oxide Data Set
C          2.60526         3.98104         3.22902
C          1.47060         4.68183         3.67752
C          2.02843         6.55971         2.20137
C          1.14376         5.92096         3.16585
C          1.99532         8.07870         2.00482
C          1.07206         8.98658         2.74076
C          1.53591        10.55486         0.89177
C          0.83250        10.18611         2.18981
C          1.39129        12.02619         0.52168
C          0.18355        12.68399         0.80592
C          1.07898        14.83813         0.13089
C          0.08541        14.09541         0.71460
C          1.05736        16.33298         0.30730
C         -0.15047        17.05648        -0.24489
C          1.07994        19.17817        -0.08388
C         -0.13018        18.40754        -0.34051
C          1.08776        20.62585        -0.13472
C         -0.12109        21.37115        -0.24159
C          1.10892        23.47842        -0.43751
C         -0.10354        22.74730        -0.33562
C          1.10087        24.91999        -0.43853
C          0.01720        25.65584         0.03577
C          1.15259        27.80967        -0.24576
C          0.04184        27.06441         0.13210
C          1.21770        29.22289        -0.02764
C          4.57278         3.78676         1.73513
C          3.47568         4.52368         2.24665
C          4.08454         6.43449         0.79210
C          3.22682         5.84249         1.74905
C          3.98167         7.84142         0.49392
C          3.29484         8.72760         1.49788
C          3.85330        10.69329        -0.09465
C          3.02458        10.21693         1.07464
C          3.68509        12.05182        -0.46200
C          2.44453        12.72249        -0.09963
C          3.42949        14.94811        -0.86773
C          2.15276        14.11694        -0.64874
C          3.51340        16.36134        -0.41259
C          2.32094        17.03900        -0.10998
C          3.56874        19.13924         0.17640
C          2.28886        18.45558        -0.00850
C          3.57282        20.67694         0.13363
C          2.30824        21.35782        -0.15700
C          3.61697        23.43062        -0.54642
C          2.34707        22.75283        -0.42412
C          3.61881        24.84934        -0.97929
C          2.30127        25.62686        -0.93438
C          3.64016        27.89080        -0.86029
C          2.31697        27.13257        -0.85852
C          3.66129        29.25847        -0.28598
C          2.40303        29.91477        -0.05904
C          6.50568         3.61968         0.21255
C          5.40183         4.32218         0.73130
C          5.94927         6.20404        -0.79027
C          5.16005         5.65979         0.23971
C          5.59773         7.48965        -1.22517
C          4.80276         8.39813        -0.49390
C          5.96242        10.55846        -1.53092
C          5.08638         9.90820        -0.44574
C          5.96963        12.06777        -1.55473
C          4.77317        12.76334        -1.03462
C          5.99278        14.97333        -1.05715
C          4.72035        14.22981        -1.13326
C          6.00423        16.32936        -0.76090
C          4.76992        17.03933        -0.43819
C          6.02211        19.15627        -0.06868
C          4.81391        18.42496        -0.10621
C          6.02851        20.57402        -0.09080
C          4.84784        21.34011        -0.14693
C          6.11223        23.47736        -0.40385
C          4.84067        22.74879        -0.41024
C          6.14037        24.88751        -0.52387
C          4.92252        25.60419        -0.96523
C          6.14868        27.79727        -0.38788
C          4.93619        27.13194        -0.91053
C          6.12205        29.18050        -0.05167
C          4.85833        29.87408         0.00860
C          8.59147         3.50480        -0.96321
C          7.41228         4.17172        -0.73484
C          8.44734         6.30859        -1.60622
C          7.12228         5.48053        -1.47227
C          8.52679         7.76218        -1.80240
C          7.36638         8.56002        -2.03356
C          8.48290        10.70424        -2.01297
C          7.27758         9.91628        -1.80023
C          8.48710        12.16087        -1.76795
C          7.26134        12.80870        -1.66428
C          8.51477        15.05402        -1.46470
C          7.20449        14.29026        -1.54035
C          8.47888        16.37216        -0.79626
C          7.27935        17.00706        -0.58082
C          8.56664        19.10239        -0.04944
C          7.28106        18.33951         0.13437
C          8.50969        20.54867         0.22643
C          7.33291        21.27649        -0.37930
C          8.52218        23.46844         0.01658
C          7.31509        22.76974        -0.15120
C          8.54511        24.87256        -0.13134
C          7.35595        25.60471        -0.37743
C          8.53435        27.77034         0.06726
C          7.35892        27.06947        -0.28873
C          8.55043        29.17505         0.28892
C          7.31893        29.85875         0.25696
C         10.97550         3.42581        -1.63802
C          9.64918         4.11454        -1.83636
C         10.91431         6.31986        -1.35404
C          9.63532         5.61633        -1.58515
C         10.98491         7.78245        -1.56331
C          9.75394         8.45997        -1.75528
C         11.03836        10.64994        -1.72369
C          9.79763         9.91251        -2.00852
C         11.00307        12.09547        -1.65851
C          9.78934        12.81084        -1.71333
C         11.08954        14.95906        -1.22146
C          9.81047        14.29412        -1.62479
C         11.04139        16.24048        -0.45761
C          9.74368        16.96040        -0.26122
C         11.01924        19.14179         0.08813
C          9.76605        18.43447        -0.03743
C         11.05105        20.52970         0.25999
C          9.78947        21.27635         0.48425
C         11.03088        23.41232        -0.14673
C          9.79612        22.80176         0.53258
C         11.08740        24.86243         0.22996
C          9.83233        25.59045        -0.04889
C         10.90014        27.70302         0.94951
C          9.82994        27.07212         0.08469
C         11.01672        29.19089         0.67113
C          9.81303        29.86317         0.46834
C         13.36941         3.26885        -1.07958
C         12.13926         4.04013        -1.31617
C         13.50943         6.22327        -1.46918
C         12.17223         5.54074        -1.17566
C         13.51567         7.75857        -1.80306
C         12.20156         8.48004        -1.55858
C         13.54741        10.59823        -1.80118
C         12.21723         9.90915        -1.61832
C         13.49844        12.06554        -1.44865
C         12.29893        12.77116        -1.42901
C         13.53349        14.87666        -0.85431
C         12.33248        14.17617        -1.12317
C         13.52319        16.29935        -0.51565
C         12.32377        16.95711        -0.30144
C         13.59642        19.09437         0.10221
C         12.28165        18.35579         0.13019
C         13.54220        20.55945        -0.22000
C         12.28009        21.27585         0.18009
C         13.50931        23.42357         0.22809
C         12.29577        22.66602         0.17193
C         13.51945        24.80173         0.42788
C         12.25136        25.51357         0.53516
C         13.51583        27.69510         1.05874
C         12.22633        26.94196         0.96810
C         13.51465        29.17562         0.86042
C         12.27659        29.84290         0.72235
C         15.66310         3.27788         0.11487
C         14.32864         3.72543        -0.21845
C         15.72809         6.34942        -0.27984
C         14.43785         5.89691        -0.33804
C         15.91121         7.72855        -0.71730
C         14.72158         8.46697        -1.17566
C         15.96184        10.58176        -0.95433
C         14.70989         9.83335        -1.18048
C         15.83147        12.00757        -0.48465
C         14.83089        12.77651        -1.38829
C         15.99584        14.89069        -0.69428
C         14.77028        14.20410        -0.91596
C         16.01189        16.29755        -0.66546
C         14.79681        17.01274        -0.49638
C         16.06763        19.15353        -0.33542
C         14.83124        18.40513        -0.30239
C         16.08319        20.54102        -0.11671
C         14.81888        21.23475         0.20529
C         16.00938        23.44052        -0.21811
C         14.80426        22.70917         0.30055
C         15.98581        24.87843         0.21322
C         14.79357        25.51119         0.47764
C         16.05327        27.74062         0.71162
C         14.80610        26.94683         0.87616
C         16.01000        29.22694         0.72602
C         14.73747        29.86906         0.77124
C         17.83592         3.43625         1.13934
C         16.68559         4.10918         0.54450
C         18.03634         6.17817         0.48396
C         16.80876         5.57411         0.33824
C         18.32410         7.59488         0.02230
C         17.09713         8.36461        -0.42904
C         18.36972        10.55679        -0.02703
C         17.21169         9.81853        -0.63047
C         18.25733        12.01718         0.14178
C         17.16345        12.71033        -0.31065
C         18.42341        14.83619        -0.20738
C         17.22611        14.16069        -0.42516
C         18.51627        16.26267        -0.38662
C         17.31702        17.01456        -0.93003
C         18.51540        19.14724        -0.35413
C         17.31685        18.46752        -0.50338
C         18.54291        20.56459        -0.10501
C         17.30328        21.28340        -0.05395
C         18.52370        23.41839         0.10992
C         17.30643        22.70305         0.02986
C         18.54175        24.86285         0.07432
C         17.25599        25.60240        -0.01842
C         18.52654        27.79719         0.29517
C         17.26111        27.09307         0.11718
C         18.49601        29.16070         0.64653
C         17.23569        29.87642         0.74553
C         18.96923         4.06914         1.48977
C         19.66035         6.34759         2.29715
C         19.22572         5.49824         1.11836
C         19.65709         7.72336         2.18864
C         19.12750         8.37830         1.05936
C         20.35556        10.60917         1.58853
C         19.40189         9.79372         0.78781
C         20.41203        11.94869         1.49108
C         19.31243        12.80507         0.91007
C         20.77773        14.90739         0.68157
C         19.69648        14.04218         0.08071
C         20.80709        16.24293         0.46859
C         19.69672        16.94165        -0.15068
C         21.01257        19.14838        -0.13230
C         19.80346        18.39021        -0.60812
C         20.98824        20.47819         0.10797
C         19.76461        21.26401         0.06351
C         20.96587        23.45095         0.26869
C         19.76464        22.69017         0.17526
C         20.95488        24.82930         0.23735
C         19.74519        25.57089         0.12360
C         21.00723        27.80390         0.35205
C         19.78281        27.08608        -0.13826
C         20.94826        29.10627         0.77812
C         19.73050        29.82260         0.86874
O          5.44249        11.21495        -2.70655
O         16.95660        10.33305        -1.99340
O          4.33431         8.74376         2.46010
O         17.11724        26.47774        -1.23909
O          2.81832        25.07554        -2.17982
O         13.65065         7.91212        -3.21199
O         15.71792        27.16397         2.02131
O          8.92701        20.81325         1.60533
O         19.62222        10.10683        -0.65351
O         14.90429        21.90047         1.51402
O          6.17882         7.90768        -2.41280
O         10.14544        26.49908        -1.21924
O         14.00967         4.89436         0.52302
O          5.16346        26.40986        -2.15859
O         13.05183        18.65179         1.36796
O          9.16326        10.33667        -3.26126
O         10.63756        15.00005        -2.62304
O          3.88723        14.78351        -2.25767
O         11.48597         6.00292         0.02010
O          3.58718        19.94400         1.40580
O          1.33774         7.24150         1.05178
O         10.30756        16.13681         0.82652
O          2.81952        27.79006        -2.05868
O         12.85896        27.19163         2.27636
O          7.75803        15.00545        -2.71079
O         15.82330        23.45667        -1.67723
H         16.42917        24.13414        -2.04918
O         20.20849        13.56392        -1.18865
H         20.31686        14.33265        -1.78645
O          5.94827        10.03970         0.73546
H          5.49240         9.55539         1.50097
O          7.27369        18.00681         1.56631
H          7.50002        18.82154         2.06580
O         18.63465        13.34379         2.08857
H         18.36976        12.59501         2.66258
O         10.87075        23.30996        -1.59206
H         10.56380        24.17562        -1.93856
O          0.98959        16.51722         1.77088
H          1.01890        17.48257         1.94720
O         14.07580         5.56031        -2.61787
H         14.10133         6.27402        -3.32367
O         13.82184        10.55831        -3.24013
H         13.81969         9.56854        -3.47746
O         10.33614        27.58465         2.28568
H         11.09344        27.65568         2.91347
O          7.56576        21.12072        -1.82073
H          6.84639        21.58566        -2.29868
O          6.70855         5.12612        -2.81926
H          6.46876         5.96643        -3.27295
O         19.94090        18.29553        -2.08146
H         20.04900        19.20889        -2.42393
O         15.25314        11.93403         0.84908
H         15.17258        12.84701         1.19915
O         19.20414         7.47865        -1.15353
H         19.44699         8.40389        -1.41509
O         13.55180        20.59135        -1.68294
H         13.46200        21.52312        -1.97857
O          9.25934         3.92036        -3.22823
H          8.33034         4.24781        -3.32518
O          3.48184        11.03016         2.17533
H          4.06499        10.40421         2.70568
O         15.36536        12.79131        -2.73443
H         15.04901        11.97096        -3.19540
O         19.80208        27.18441        -1.61629
H         18.89190        26.93666        -1.91396
O          1.03950         9.75233        -0.19631
H          0.08241         9.92614        -0.30706
O         20.37174         5.48740         0.21483
H         20.21972         6.19621        -0.46329
O          9.90870        23.18481         1.92304
H          9.37998        22.53856         2.44489
O          1.56057        13.86938        -1.96541
H          2.30925        13.89397        -2.61199
O         17.45539        17.02534        -2.38814
H         18.34143        17.42518        -2.58075
H          2.81236         2.97691         3.62455
H          0.81425         4.21228         4.42349
H          0.22653         6.43802         3.47714
H          0.60287         8.67761         3.68665
H          0.17571        10.90879         2.69659
H         -0.65782        12.12356         1.23811
H         -0.76479        14.60159         1.19435
H         -1.06924        16.49177        -0.45916
H         -1.03735        18.93534        -0.66726
H         -1.08931        20.85444        -0.21158
H         -1.06013        23.28552        -0.37947
H         -0.87606        25.13146         0.40147
H         -0.82648        27.58141         0.56509
H          0.29401        29.74302         0.26633
H          4.76644         2.77385         2.11582
H          2.41700        30.98230         0.20522
H          6.74073         2.62669         0.62621
H          4.85395        30.91245         0.37277
H          8.78910         2.55628        -0.43913
H          7.28554        30.93893         0.46091
H         10.95745         2.32931        -1.74088
H          9.81211        30.96243         0.40398
H         13.50666         2.31922        -1.61653
H         12.29710        30.93352         0.56780
H         15.85912         2.19246         0.12277
H         14.70776        30.96716         0.69784
H         17.72604         2.36163         1.35431
H         17.27295        30.97159         0.84352
H         19.79202         3.51745         1.96793
H         20.12790         5.87064         3.17172
H         20.13059         8.32668         2.98022
H         21.13831        10.07332         2.14742
H         21.20102        12.48252         2.04381
H         21.63369        14.41416         1.16536
H         21.66733        16.82900         0.82379
H         21.97787        18.62194        -0.11076
H         21.92941        20.98281         0.36948
H         21.93384        22.93638         0.33797
H         21.91468        25.36072         0.28449
H         21.98923        27.32171         0.24902
H         21.88067        29.62318         1.04958
H         19.73889        30.88445         1.15036
