         260
 CSIRO Nanostructure Databank - Neutral Graphene Oxide Data Set
C         30.52535        31.81066        -1.99267
C         30.27845        32.96646        -1.63389
C         30.26377        36.05448         0.02491
C         30.23001        37.25910         0.31850
C         30.39871        40.17862         1.36177
C         30.56293        41.26891         1.94619
C         32.88570        28.90664        -1.58275
C         31.81966        29.51357        -1.77875
C         33.00460        31.67950        -1.70524
C         31.68838        30.93554        -2.11744
C         33.08379        33.14939        -1.52875
C         31.05439        34.16759        -1.50731
C         32.52249        35.99409        -0.77477
C         31.19412        35.21404        -0.64329
C         32.50945        37.49267        -0.63238
C         31.24340        38.22633        -0.16263
C         32.63600        40.38428         0.42067
C         31.35094        39.61501         0.40707
C         32.69939        41.67178         0.96089
C         31.60650        42.20666         1.78465
C         32.81632        44.25919         2.03930
C         31.78777        43.55878         2.15215
C         35.65561        27.42201        -1.13784
C         35.40528        28.77742        -0.85221
C         34.07756        29.40672        -0.86832
C         35.29455        31.64868        -0.53801
C         34.07124        30.91810        -0.94221
C         35.08756        33.03203        -0.09596
C         33.93895        33.78034        -0.67152
C         35.01665        35.99691         0.08620
C         33.78414        35.23702        -0.36071
C         35.07192        37.48428        -0.16528
C         33.82565        38.25912        -0.48413
C         35.12587        40.46643        -0.14537
C         33.74735        39.81507        -0.46108
C         35.16547        41.90538         0.24513
C         33.86047        42.57337         0.61297
C         35.24216        44.69935         1.26570
C         33.94384        44.01700         1.14210
C         35.51597        45.99298         1.52322
C         38.04146        27.55898        -1.26603
C         36.80479        26.93857        -1.36391
C         37.90394        28.93032        -0.78102
C         36.59299        29.54012        -0.65918
C         37.67747        31.69969         0.04671
C         36.51360        30.96932        -0.34246
C         37.62927        33.09786         0.34942
C         36.33136        33.82872         0.35734
C         37.52111        35.99562         0.35697
C         36.32630        35.29520         0.23743
C         37.56677        37.42532         0.29539
C         36.29420        38.18415         0.34393
C         37.63905        40.36769         0.29764
C         36.31762        39.67525         0.33489
C         37.69442        41.74952         0.42984
C         36.43056        42.48025         0.89588
C         37.84791        44.59918         1.07788
C         36.48923        44.01393         0.60498
C         37.87276        46.15258         1.19135
C         36.64699        46.64381         1.48917
C         40.79913        25.19008        -2.34852
C         39.70415        25.74778        -2.22085
C         40.60904        27.78799        -1.25072
C         39.33496        27.08872        -1.77674
C         40.32182        28.87836        -0.25459
C         39.06415        29.64667        -0.43441
C         40.02476        31.56900         1.00008
C         39.06317        31.11814        -0.12044
C         39.93508        33.07074         1.37584
C         38.77230        33.79389         0.72188
C         40.02433        35.81452         0.09968
C         38.78176        35.29490         0.85880
C         40.05100        37.35225         0.04450
C         38.78513        38.13909         0.22495
C         40.10459        40.28999         0.34010
C         38.81797        39.55369         0.17973
C         40.19482        41.68697        -0.25578
C         38.93269        42.51276         0.05889
C         40.30528        44.82867         0.04270
C         38.99327        44.01637         0.22659
C         40.46871        46.06142         0.95237
C         39.18269        46.78945         1.37895
C         40.43900        48.84384         0.96930
C         39.42191        48.22412         1.32307
C         43.35247        25.08901        -1.54570
C         42.11996        25.71865        -2.02983
C         42.99732        27.49934        -0.28363
C         41.96047        27.11626        -1.32253
C         42.74953        28.70170         0.60433
C         41.41666        29.41160         0.61661
C         42.56929        31.52388         1.67511
C         41.29833        30.79776         1.23526
C         42.57316        33.03971         1.47980
C         41.28924        33.81285         1.23845
C         42.52719        35.83434         0.51195
C         41.32018        35.17960         0.61933
C         42.60654        37.27984         0.42945
C         41.36022        38.05328         0.19974
C         42.67858        40.21330         0.51173
C         41.36290        39.52518         0.46437
C         42.75229        41.69823         0.56134
C         41.53387        42.45192         0.01988
C         42.85865        44.59347         0.58308
C         41.57347        43.95549         0.02943
C         43.00562        46.13982         0.37188
C         41.68030        46.86638         0.62439
C         42.77066        48.73264        -0.31359
C         41.65021        48.25163         0.46629
C         44.35153        25.65039        -1.07506
C         45.39727        27.43179         0.64909
C         44.43370        26.95223        -0.39058
C         44.96502        28.54739         1.55246
C         43.89623        29.34446         1.29277
C         45.24066        31.52477         1.63693
C         43.88695        30.77216         1.74995
C         45.17811        32.97597         1.24745
C         43.84891        33.63425         0.93120
C         45.09512        35.87474         0.23860
C         43.81061        35.07715         0.51453
C         45.10041        37.33011         0.73819
C         43.76073        37.97755         0.73609
C         45.59510        40.41976         0.75272
C         43.67478        39.39964         0.99196
C         45.40134        41.70976         0.25082
C         44.13097        42.44090         0.50966
C         45.03422        44.36960        -0.78446
C         44.06759        43.83938         0.01619
C         44.78398        45.70161        -1.46963
C         43.70854        46.58378        -0.93875
C         43.58201        48.05479        -0.96459
C         47.71881        27.53487         1.54860
C         46.74303        27.00156         1.03830
C         48.23469        28.85608         2.06724
C         46.90903        29.65172         2.03035
C         47.77751        31.63335         0.96752
C         46.59973        30.84529         1.45501
C         47.60922        32.94387         0.24887
C         46.33404        33.66262         0.54471
C         47.60818        35.86506         0.43240
C         46.33300        35.17169         0.82653
C         47.53744        37.25013        -0.15345
C         46.42963        38.07342         0.51131
C         47.67283        40.10849        -0.40861
C         46.57844        39.54048         0.28355
C         47.59553        41.46847        -0.84668
C         46.42776        42.23759        -0.56699
C         47.46845        44.18562        -1.87364
C         46.34537        43.65507        -0.95627
C         46.95904        45.37950        -2.55834
C         45.97684        46.05901        -2.24764
C         50.70242        29.45500         1.76070
C         49.33638        29.43938         1.15232
C         50.14521        31.57853        -0.02852
C         49.09811        30.92761         0.83525
C         50.18226        33.06023         0.06813
C         48.86199        33.77970        -0.14652
C         50.13438        35.87622         0.41908
C         48.85229        35.10083         0.72525
C         49.95527        37.04723        -0.53021
C         48.86944        37.99702        -0.20554
C         50.11674        40.04656        -1.04708
C         48.90151        39.32629        -0.53254
C         49.71920        41.03440        -2.15941
C         48.59505        41.95539        -1.78843
C         49.40055        43.41195        -3.42584
C         48.45280        43.22005        -2.37294
C         51.86198        29.78163         1.96984
C         52.92803        31.85433         1.52416
C         53.04554        30.57978         2.08839
C         52.33829        32.81148         0.99716
C         51.36940        33.68628         0.46231
C         52.55037        36.03325        -0.10661
C         51.45352        35.17591         0.44160
C         52.55176        37.29114        -0.15478
C         52.21566        38.62228         0.07413
C         52.33779        40.03870        -2.06468
C         51.58622        39.60874        -0.86364
C         52.05560        40.91354        -2.89175
C         50.76042        41.47793        -3.25742
C         50.46081        42.82730        -3.71733
O         44.72511        39.94755         1.72705
O         40.01779        46.03125         2.33660
O         51.02272        40.71856        -0.09655
O         50.89379        30.91489        -0.74028
O         34.02023        35.55392         1.05811
O         40.04174        28.09666        -2.55399
O         33.61874        30.17625         0.27328
O         43.72581        33.95853        -0.48139
O         50.45866        37.04705        -1.64705
O         43.41333        42.21944         1.74363
O         47.51645        44.40131        -0.44662
O         45.36074        32.59703         2.62773
O         40.63463        40.01823         1.67718
O         41.83799        43.23061        -1.20049
O         49.74658        40.50462        -3.52118
O         40.79557        37.78257        -1.14875
O         35.38057        33.27278         1.31060
O         40.42496        28.47877         1.15868
O         41.98830        33.81511         2.54452
O         42.54456        27.31330         1.07694
O         35.40860        41.50686        -1.12950
O         42.84986        44.42873         1.97297
O         42.43164        26.94939        -2.69419
O         46.56902        33.06119        -0.77260
O         36.04911        38.94575         1.58126
O         45.40142        27.92972        -0.76684
O         43.47855        45.80468        -2.11376
O         32.22311        33.95129        -2.29941
O         40.18487        30.77210         2.19052
O         32.46413        36.84340        -1.94837
O         30.82403        39.33013        -0.94300
O         45.84968        28.91334         2.57911
O         48.81354        31.75602         2.00224
O         34.75925        37.85251        -1.54384
O         46.01277        37.64113         1.82341
O         50.96722        35.93248         1.61984
O         43.11844        31.06977         2.94646
O         33.52140        43.72163        -0.22522
O         32.67407        31.30706        -3.09113
O         38.62298        43.44345        -1.04849
O         52.48938        39.12560         1.28464
H         52.12416        40.04044         1.34117
O         40.21123        45.44978        -1.25465
H         39.94675        44.75579        -1.89973
O         48.85094        34.64964         2.09772
H         49.64606        35.04572         2.53295
O         36.34506        44.27426        -0.78202
H         35.48338        43.92090        -1.09815
O         38.92674        35.69269         2.23831
H         39.04803        34.88662         2.79761
O         47.21571        37.19971        -1.57945
H         47.87423        36.62138        -2.02216
O         38.09512        44.13261         2.42614
H         38.85690        44.65669         2.78944
O         39.88165        35.34142        -1.25738
H         40.42214        35.93763        -1.82692
O         54.15329        30.14822         2.69014
H         54.04382        29.23683         3.02602
O         43.91188        46.56645         1.39831
H         43.73568        45.94983         2.16097
O         39.67921        31.77835        -1.29321
H         39.12936        31.58326        -2.08215
O         45.17399        35.93940        -1.19168
H         44.86996        35.07409        -1.54867
O         33.37848        40.17864        -1.79564
H         33.97950        39.71374        -2.41724
O         39.57588        33.12659         2.77857
H         39.92608        32.30806         3.20988
O         49.36643        28.71417        -0.06644
H         50.05922        29.11996        -0.64249
O         46.16929        35.20831         2.26918
H         47.04938        35.01029         2.67132
O         40.16535        41.39696        -1.66549
H         40.27888        42.24936        -2.14375
O         48.72392        28.79487         3.38904
H         48.00058        28.51013         3.98557
O         48.75270        34.18224        -1.51387
H         47.83780        33.95985        -1.81413
O         36.24769        42.26521         2.30466
H         36.97962        42.72438         2.78448
