         234
 CSIRO Nanostructure Databank - Neutral Graphene Oxide Data Set
C          1.23529         1.43903        -0.29273
C          1.19610         2.60802         0.49502
C          2.43202         0.98857        -0.81325
C          2.36282         3.33023         0.71405
C          1.11350         6.40485         1.11074
C          1.11045         7.78396         0.86300
C          2.31725         5.72542         1.30624
C          2.30494         8.52647         0.78638
C          1.17576        10.73017         0.49238
C          1.19569        12.09270         0.15198
C          2.31897         9.93895         0.47163
C          2.39897        12.78148        -0.12743
C          1.24819        14.96018        -0.59431
C          1.28974        16.30816        -0.91213
C          2.43269        14.19949        -0.42987
C          2.52235        16.98625        -1.05649
C          2.57726        18.38104        -1.38926
C          3.64805         1.71319        -0.63898
C          3.61026         2.94204         0.12510
C          4.87032         1.07170        -1.01540
C          4.79754         3.68152         0.46222
C          3.55082         6.44532         1.30116
C          3.54668         7.84065         1.00205
C          4.80244         5.76260         1.38989
C          4.79663         8.54417         0.98485
C          3.60435        10.53904        -0.04716
C          3.62328        12.05456        -0.07304
C          4.84844         9.93971         0.58286
C          4.84755        12.71912        -0.23251
C          3.69211        14.85531        -0.58718
C          3.73516        16.26435        -0.86904
C          4.90466        14.12075        -0.46134
C          4.98039        16.94416        -0.97172
C          3.77509        19.02600        -1.53197
C          5.01792        18.33276        -1.32356
C          6.06295         1.79387        -1.18092
C          5.96438         3.74884        -0.28077
C          7.39830         1.42915        -0.97841
C          7.24333         4.33631         0.04018
C          6.01167         6.39379         1.13647
C          5.99547         7.82553         1.12441
C          7.22042         5.73899         0.53584
C          7.26394         8.54488         1.29087
C          6.04620        10.59801         0.43738
C          6.10508        11.94775        -0.16192
C          7.30762        10.01733         0.91499
C          7.42164        12.70536        -0.06295
C          6.17689        14.81430        -0.44742
C          6.20596        16.25079        -0.72262
C          7.34861        14.16287        -0.10526
C          7.42336        16.92071        -0.83408
C          6.25139        18.98402        -1.46075
C          7.47352        18.30209        -1.21751
C          8.49064         2.35187        -0.86998
C          8.44202         3.75456        -0.42917
C          9.74850         1.76303        -1.09514
C          9.71368         4.48874        -0.35935
C          8.50216         6.50342         0.53168
C          8.53898         7.81079         1.21409
C          9.77777         5.87233         0.12081
C          9.71114         8.46700         1.39940
C          8.62084        10.67685         0.67061
C          8.64301        12.03402         0.46041
C          9.86963         9.90125         0.96135
C          9.83681        12.84175         0.69283
C          8.53352        14.99169         0.32850
C          8.71353        16.15254        -0.65920
C          9.81503        14.20368         0.54003
C          9.87978        17.03915        -0.32434
C          8.72040        18.96438        -1.31059
C          9.92678        18.35030        -0.84332
C         10.95254         2.48927        -1.09134
C         10.90649         3.89266        -0.77836
C         12.17637         1.81204        -1.29022
C         12.15939         4.67312        -0.91290
C         10.91660         6.65199         0.08893
C         10.94422         8.05237         0.65325
C         12.17683         6.09683        -0.44187
C         12.22630         8.41018         1.43737
C         10.97242        10.69764         1.61357
C         10.98898        12.18640         1.39105
C         12.26207         9.91861         1.78428
C         12.28874        12.94306         1.50671
C         11.02843        15.01754         0.80956
C         11.05317        16.47717         0.34951
C         12.32766        14.33805         0.98155
C         12.36382        17.12213         0.14993
C         11.15719        19.06060        -0.83716
C         12.37941        18.46540        -0.42400
C         13.42658         2.44254        -1.14361
C         13.47912         3.92292        -1.03710
C         14.61033         1.71704        -1.17193
C         14.72449         4.53855        -0.50106
C         13.52751         6.69132         0.01655
C         13.52466         7.91199         0.84230
C         14.72528         5.83956        -0.01061
C         14.76223         8.55966         1.08305
C         13.56978        10.66770         1.77128
C         13.58010        12.17628         1.70827
C         14.81253         9.95684         1.38402
C         14.85289        12.84384         1.33556
C         13.51264        15.02980         0.86113
C         13.52951        16.43235         0.44416
C         14.80072        14.33337         1.17541
C         14.82009        17.16130         0.32868
C         13.58327        19.14242        -0.64156
C         14.86364        18.59041        -0.23309
C         15.87611         2.33892        -0.91787
C         15.90907         3.71974        -0.46424
C         17.04065         1.60445        -1.03915
C         17.16714         4.28806        -0.11636
C         15.89396         6.34488         0.80956
C         15.98984         7.86562         0.81542
C         17.20775         5.63605         0.48856
C         17.21208         8.55484         0.86772
C         16.03192        10.65592         1.32030
C         16.01864        12.12180         1.25756
C         17.25411         9.94659         1.13489
C         17.29383        12.76631         0.82982
C         16.07241        15.02792         0.81481
C         16.04356        16.33654         0.09220
C         17.30206        14.22328         0.56227
C         17.31439        16.95776        -0.39292
C         16.13071        19.12670        -0.74622
C         17.34314        18.41490        -0.71108
C         18.37980         2.14694        -0.65033
C         18.36875         3.64046        -0.44525
C         19.49357         1.66535        -1.53936
C         19.60128         4.36949        -0.56958
C         18.50905         6.38184         0.43782
C         18.46179         7.89020         0.32864
C         19.68900         5.73235        -0.18609
C         19.77220         8.49579         0.79053
C         18.56252        10.64034         1.49662
C         18.59446        12.10099         1.09280
C         19.82203         9.94633         1.01479
C         19.77620        12.77064         1.04347
C         18.57751        14.99983         0.62353
C         18.61042        16.29350        -0.09067
C         19.85012        14.24219         0.81883
C         19.80263        16.86368        -0.43204
C         18.56828        18.96919        -1.07060
C         19.79057        18.11713        -1.29062
C         20.59476         2.41201        -1.74983
C         20.71767         3.75911        -1.21892
C         21.89010         4.50140        -1.41376
C         20.90000         6.44327        -0.32882
C         21.03501         7.78011         0.32589
C         21.99347         5.81284        -0.94731
C         22.20377         8.63712         0.10131
C         21.02221        10.60921         0.97914
C         21.06212        12.06244         1.43256
C         22.20323         9.94401         0.47522
C         22.29525        12.81669         1.00476
C         21.10099        14.86860         0.36302
C         21.07941        16.20732        -0.13130
C         22.29333        14.09164         0.51870
C         22.25569        16.95267        -0.33186
C         21.06131        18.90724        -1.16905
C         22.21495        18.31233        -0.75006
O         12.97266        10.15367         3.02451
O         12.91188         6.97964        -1.30989
O         17.20205        13.30130        -0.56515
O         10.56651        11.58446         2.67148
O         14.97092        18.26117         1.23416
O          2.27751         4.37344         1.66080
O         12.90809        12.82962         2.82504
O          5.88856         3.14496        -1.54788
O          7.22446         9.56987         2.32403
O         15.61553        15.05868         2.18583
O         18.09157         5.74639         1.67523
O          6.96717        12.07085        -1.33381
O         10.80690        16.10623         1.77856
O          7.59560         6.60931        -0.63531
O         19.20742        15.00071         1.94460
O         16.42469        16.19986        -1.31491
O         12.84522         4.54161        -2.20044
O          4.76618         4.39050         1.67551
O         20.56524         7.72162         1.72480
O         10.63559         9.25881        -0.24578
O         15.56000         5.98760         2.18718
H         16.40837         6.00326         2.68908
O         18.61059        10.60735         2.95384
H         19.48437        10.99171         3.22013
O          8.17787        15.53285         1.62522
H          8.99980        15.92206         2.01917
O         19.71901        17.64832        -2.69059
H         18.88062        17.14654        -2.78654
O         18.40285         8.12607        -1.11914
H         18.21319         9.07582        -1.27369
O          3.66027        10.12946        -1.46360
H          4.47224        10.52082        -1.85317
O         18.66885         1.57197         0.69016
H         18.04392         1.98626         1.32343
O         12.10037         7.69248         2.69550
H         12.65563         8.17544         3.35199
O          9.04205        15.53721        -1.95218
H          9.02504        16.24404        -2.63172
O         21.07144        12.01328         2.90191
H         21.01509        12.93792         3.22679
H          0.31111         0.86999        -0.46331
H          0.25513         2.93949         0.95244
H          2.45979         0.05409        -1.39080
H          0.16583         5.85104         1.13576
H          0.14627         8.28194         0.69167
H          0.21485        10.29245         0.79950
H          0.24301        12.63887         0.16452
H          0.26825        14.47564        -0.48698
H          0.35189        16.86521        -1.05132
H          1.63248        18.92419        -1.53764
H          4.87828        -0.02619        -1.08499
H          3.80448        20.09274        -1.79776
H          7.65058         0.35801        -0.94847
H          6.27610        20.04802        -1.73941
H          9.78957         0.69166        -1.34189
H          8.75135        20.01271        -1.64071
H         12.15054         0.72485        -1.45676
H         11.18136        20.08493        -1.23646
H         14.58015         0.63339        -1.35787
H         13.57486        20.07262        -1.22859
H         16.97908         0.54526        -1.33169
H         16.12637        20.14931        -1.15221
H         19.41594         0.64963        -1.95456
H         18.61502        20.03010        -1.35951
H         21.42414         2.02453        -2.36092
H         22.74749         4.03395        -1.91882
H         22.94667         6.34632        -1.06317
H         23.08992         8.22109        -0.39869
H         23.11322        10.53782         0.31415
H         23.26551        12.33084         1.18078
H         23.25858        14.54576         0.24991
H         23.23173        16.51580        -0.08110
H         21.06032        19.95568        -1.50071
H         23.15271        18.88729        -0.73668
