         321
 CSIRO Nanostructure Databank - Neutral Graphene Oxide Data Set
C         30.52561        56.79619        -0.42788
C         30.04326        58.09110        -0.31779
C         29.24232        58.88158        -1.18258
C         30.35724        61.09782        -0.72188
C         29.31988        60.28795        -1.19457
C         32.86784        52.85441         0.92766
C         32.78208        54.26982         1.44425
C         31.66454        54.97055         0.71756
C         32.78014        57.15540         0.73638
C         31.64682        56.31368         0.37453
C         32.83001        58.56446         0.57992
C         31.64568        59.31819         0.40463
C         32.82137        61.30871        -0.26198
C         31.59768        60.61324        -0.18016
C         35.29122        48.63671         0.33569
C         35.26881        50.02552         0.57780
C         34.09598        50.77932         0.56819
C         35.28432        52.88643         1.46010
C         34.05410        52.17001         0.90427
C         35.26499        54.35594         1.08324
C         34.08695        55.00878         1.21369
C         35.31251        57.27006         1.23664
C         34.01161        56.49276         1.18939
C         35.30652        58.65589         0.72440
C         34.07733        59.29527         0.49134
C         35.26971        61.38888         0.02266
C         34.04737        60.68362         0.10252
C         37.69317        44.31840         0.26503
C         37.70003        45.73553         0.25799
C         36.50198        46.48316         0.30557
C         37.76910        48.59366         0.32547
C         36.50147        47.89424         0.30239
C         37.77051        50.09557         0.14547
C         36.56739        50.71357         0.82394
C         37.82667        52.94102         0.80593
C         36.59796        52.17031         1.15073
C         37.79889        54.34453         0.70501
C         36.49759        55.11229         0.61541
C         37.81844        57.24126         0.75535
C         36.63060        56.48449         1.31962
C         37.78508        58.65054         0.59488
C         36.52790        59.35045         0.54380
C         37.74571        61.45546         0.15443
C         36.50204        60.74406         0.23071
C         40.16396        40.03401         0.07947
C         40.15757        41.43671        -0.12361
C         38.93926        42.17518         0.04645
C         40.07576        44.33929        -0.35718
C         38.87265        43.57415         0.03993
C         40.15836        45.77508        -0.01512
C         38.96590        46.45167         0.24789
C         40.22717        48.60597         0.60338
C         38.95123        47.88958         0.38580
C         40.23820        50.08732         0.57086
C         39.06458        50.78248         0.54035
C         40.27849        52.95406         0.60713
C         39.04973        52.23579         0.67277
C         40.23087        54.36626         0.52467
C         39.00649        55.06530         0.54447
C         40.19743        57.25363         0.20738
C         39.00424        56.53580         0.49368
C         40.22152        58.65832         0.22700
C         38.99406        59.37073         0.38037
C         40.22992        61.60556         0.29727
C         38.95253        60.80286         0.25885
C         42.70938        35.80845         0.99134
C         42.74244        37.30912         0.85591
C         41.42521        37.95167         0.49290
C         42.60657        39.96242        -0.36730
C         41.36246        39.26555         0.06047
C         42.63880        41.44076        -0.33699
C         41.39317        42.13026        -0.36061
C         42.62882        44.34784        -0.65891
C         41.34742        43.57584        -0.63572
C         42.62373        45.76136        -0.22841
C         41.44901        46.42499         0.04124
C         42.75019        48.62802         0.15056
C         41.51630        47.85099         0.47825
C         42.73401        50.05998         0.17436
C         41.56589        50.77062         0.83217
C         42.73673        52.91319         0.29442
C         41.53972        52.24957         0.53458
C         42.78100        54.38409         0.31788
C         41.48860        55.13256         0.44616
C         42.72261        57.23923        -0.14245
C         41.41903        56.48534        -0.22411
C         42.69907        58.66587        -0.11733
C         41.47393        59.37793         0.04542
C         42.69252        61.48981        -0.00326
C         41.49088        60.79820         0.08790
C         45.14754        33.03288         1.51887
C         43.93345        33.68977         1.32492
C         45.17146        35.76793         0.84218
C         43.90126        35.08462         1.02128
C         45.19017        37.12295         0.44601
C         43.89354        37.69194        -0.09957
C         45.13869        39.97891        -0.14499
C         43.92152        39.19793        -0.37713
C         45.13662        41.37998        -0.30053
C         43.88173        42.08955        -0.44261
C         45.14660        44.29340        -0.26278
C         43.90220        43.55956        -0.59694
C         45.16959        45.77035        -0.37965
C         43.92500        46.44739         0.15287
C         45.14300        48.59733        -0.65630
C         43.88962        47.92233        -0.16769
C         45.14361        50.08874        -0.41450
C         43.93033        50.77807        -0.10093
C         45.14960        52.92631        -0.31522
C         43.95536        52.21038        -0.01914
C         45.15760        54.38031        -0.36290
C         43.97665        55.09604        -0.17711
C         45.17538        57.24062        -0.46983
C         43.93620        56.53360        -0.25678
C         45.16377        58.69125        -0.42645
C         43.93396        59.38402        -0.22082
C         45.15717        61.52163        -0.22038
C         43.93065        60.80870        -0.14631
C         46.36498        33.71319         1.44463
C         47.62122        35.82087         1.04104
C         46.40410        35.09955         1.11915
C         47.63484        37.20351         0.77120
C         46.38140        37.84525         0.48548
C         47.65523        40.06751         0.36761
C         46.33339        39.31215         0.37752
C         47.64355        41.42931        -0.18413
C         46.39785        42.07344        -0.35482
C         47.60266        44.24535        -0.92817
C         46.41912        43.54910        -0.34594
C         47.54850        45.76960        -1.17107
C         46.34693        46.42773        -0.51114
C         47.68170        48.59932        -0.36399
C         46.37852        47.87093        -0.05952
C         47.63754        50.06911        -0.60412
C         46.33508        50.79641        -0.57507
C         47.61546        52.92589        -0.73541
C         46.35131        52.21875        -0.57699
C         47.61623        54.37508        -0.69816
C         46.39857        55.08460        -0.59079
C         47.61689        57.23828        -0.94423
C         46.36372        56.51892        -0.65921
C         47.62781        58.75651        -0.83319
C         46.35895        59.43780        -0.52217
C         47.64167        61.62293        -0.62161
C         46.36013        60.84964        -0.39361
C         48.86806        37.93803         0.68853
C         50.12022        40.04045         0.21699
C         48.92450        39.31010         0.40438
C         50.12520        41.42779        -0.11307
C         48.87724        42.09176        -0.36514
C         50.17199        44.20222        -1.06727
C         48.88195        43.45485        -0.93476
C         50.13864        45.72021        -1.11016
C         48.87485        46.47874        -0.91381
C         50.12697        48.62790        -0.90952
C         48.89993        47.84018        -0.75436
C         50.12321        49.99646        -0.99262
C         48.82222        50.75072        -1.25007
C         50.08279        52.91550        -0.67480
C         48.80876        52.22173        -0.87873
C         50.08281        54.37789        -0.77527
C         48.88202        55.08024        -0.80007
C         50.07669        57.25295        -0.67755
C         48.89815        56.52670        -0.81925
C         50.05964        58.66366        -0.37656
C         48.89236        59.41442        -0.44925
C         50.06205        61.52138        -0.00510
C         48.89783        60.84979        -0.26737
C         51.33877        42.16686        -0.20940
C         52.57770        44.29070        -0.48026
C         51.40425        43.53488        -0.57845
C         52.60485        45.71869        -0.65422
C         51.40272        46.42255        -0.85415
C         52.71236        48.60292        -0.97538
C         51.39425        47.86934        -1.07023
C         52.67464        50.06175        -0.82322
C         51.41138        50.75822        -1.29007
C         52.65982        52.94440        -0.78784
C         51.38090        52.17297        -0.73734
C         52.63505        54.31965        -0.78852
C         51.36569        55.06142        -0.96250
C         52.63325        57.25063        -0.42656
C         51.37809        56.57926        -0.84790
C         52.59611        58.60475        -0.04527
C         51.29656        59.28546         0.12715
C         52.60130        61.47751         0.33097
C         51.29773        60.80721         0.33344
C         53.82488        46.44799        -0.44602
C         55.03463        48.59186        -0.14921
C         53.89358        47.84349        -0.51796
C         55.04542        50.00710        -0.17169
C         53.82763        50.74568        -0.50792
C         55.08117        52.86458        -0.33137
C         53.88276        52.20132        -0.56644
C         55.17895        54.32063        -0.51769
C         53.88322        55.10286        -0.78147
C         55.04618        57.20093        -0.03217
C         53.85159        56.53842        -0.41009
C         55.01936        58.59983         0.17771
C         53.80314        59.30865         0.19161
C         55.02827        61.44482         0.60593
C         53.78983        60.76501         0.38027
C         56.21140        50.72337         0.14944
C         57.41743        52.85267         0.44871
C         56.26093        52.14258         0.09854
C         57.45470        54.28367         0.49645
C         56.31974        55.03955         0.06798
C         57.40699        57.10083         0.76801
C         56.28469        56.44657         0.22069
C         57.29990        58.54575         1.18487
C         56.34478        59.31776         0.27964
C         57.43076        61.40227         1.10575
C         56.24907        60.76780         0.70486
C         58.59626        54.96567         0.95940
C         59.75923        57.07795         1.51136
C         58.59671        56.37608         1.08610
C         59.80450        58.50057         1.55269
C         58.62538        59.25042         1.30595
C         59.87186        61.32800         1.59214
C         58.64698        60.66651         1.32154
C         61.01606        59.19989         1.81753
C         61.03449        60.59202         1.83513
O         51.44708        55.92575        -2.15978
O         36.85055        51.13465         2.18877
O         34.52031        57.10566         2.45133
O         50.25772        44.89520        -2.34423
O         42.33734        55.00037         1.60981
O         52.16690        48.21960        -2.30161
O         45.87989        43.96685         0.97542
O         40.95458        48.09239         1.80913
O         51.13706        59.86525         1.46266
O         48.02651        43.53920        -2.13344
O         30.46401        58.77037         0.86535
O         50.76208        52.31843         0.57464
O         43.20771        39.48931        -1.62922
O         47.59792        58.10248        -2.14694
O         46.86786        39.96104         1.59633
O         43.39931        44.06779        -1.88785
O         40.46994        43.99592        -1.73951
O         47.99208        49.55321         0.72844
O         54.80890        54.78431        -1.86378
O         43.11999        37.85959         2.16461
H         42.43738        37.59155         2.81492
O         43.97085        46.33571         1.60707
H         44.79931        46.79292         1.89870
O         37.58659        50.34841        -1.28442
H         38.24881        49.81996        -1.77723
O         40.17670        62.69769        -0.63297
H         40.15961        62.32763        -1.53903
O         36.93173        56.25094         2.70582
H         36.08240        56.32210         3.20323
O         41.21796        56.16649        -1.64884
H         41.14751        57.01433        -2.13655
O         45.24640        48.40210        -2.09617
H         44.47768        48.83092        -2.52586
O         43.67646        37.00788        -1.34996
H         43.26025        37.65917        -1.96421
O         36.28191        55.42086        -0.79533
H         36.37195        54.59224        -1.31105
O         41.82280        50.65539         2.27350
H         41.65296        49.70871         2.50944
O         48.63910        50.70680        -2.69468
H         49.51348        50.92122        -3.10318
O         35.11081        52.88255         2.90959
H         35.58431        52.08000         3.23843
O         46.23010        47.84827         1.38122
H         46.72643        48.63049         1.72858
O         32.49903        54.22371         2.86965
H         33.27346        53.77127         3.28154
O         47.33193        45.95162        -2.59218
H         47.90484        45.29270        -3.05196
O         56.93777        59.30130        -1.04747
H         56.33134        59.76692        -1.65995
O         51.47566        50.86718        -2.74728
H         51.74180        49.96888        -3.06997
O         56.69612        58.54085         2.51762
H         57.32238        58.09952         3.12913
O         47.70667        61.97359        -2.02099
H         47.68783        61.14252        -2.54060
H         30.07245        56.09639        -1.14494
H         28.57958        58.38547        -1.90599
H         30.31471        62.16577        -0.98494
H         28.54597        60.80656        -1.78363
H         31.93529        52.34489         0.63873
H         30.78503        54.36193         0.45303
H         32.84154        62.33901        -0.64656
H         34.33628        48.10039         0.22949
H         33.14521        50.28238         0.32018
H         35.25736        62.45654        -0.24207
H         36.73981        43.78938         0.41362
H         35.54032        45.94927         0.33042
H         37.73105        62.54564         0.00952
H         39.22445        39.53555         0.36150
H         38.02247        41.60554         0.26268
H         40.29616        62.07736         1.31841
H         41.75320        35.29696         1.18649
H         40.49641        37.45354         0.81592
H         42.68454        62.58851         0.04071
H         45.14551        31.96076         1.76249
H         42.98667        33.14241         1.43894
H         45.14407        62.62013        -0.16721
H         47.30615        33.17799         1.63603
H         48.56993        35.29554         1.22649
H         47.61421        62.58558        -0.05327
H         49.80899        37.38005         0.80927
H         51.08442        39.51971         0.31547
H         50.08448        62.62069        -0.05170
H         52.27681        41.66067         0.06431
H         53.50788        43.78900        -0.17417
H         52.62767        62.57753         0.35339
H         54.72393        45.88610        -0.15216
H         55.94814        48.05933         0.15493
H         54.99562        62.52355         0.82479
H         57.11879        50.17048         0.43457
H         58.31245        52.29567         0.76283
H         57.42710        62.48668         1.29611
H         59.49342        54.39592         1.24148
H         60.67267        56.50724         1.73471
H         59.90140        62.42680         1.60680
H         61.93756        58.63000         2.00314
H         61.97637        61.11984         2.04126
