         276
 CSIRO Nanostructure Databank - Neutral Graphene Oxide Data Set
C        -11.04541         0.74406         0.22267
C         -9.89798         1.55829        -0.34433
C         -8.54844         0.88642        -0.11810
C         -7.32312         1.52766        -0.42936
C         -6.09565         0.83238        -0.34742
C         -4.78385         1.53591        -0.60008
C         -3.68269         0.78871         0.15611
C         -2.37547         1.48289         0.43874
C         -1.07865         0.94864        -0.13365
C          0.07126         1.54600         0.64864
C          1.24396         0.72125         0.94935
C          2.53438         1.46290         1.22220
C          3.72633         0.71552         0.72530
C          4.92984         1.45091         0.28280
C          6.20120         0.73086        -0.09584
C          7.46132         1.47883         0.30926
C          8.72849         0.68786         0.19779
C          9.77372         1.34036        -0.69748
C         11.08277         0.58592        -0.61937
C         -9.96031         3.05349        -0.04643
C         -8.99388         3.80645         0.57528
C         -7.24182         2.89869        -1.00969
C         -6.08008         3.84637        -0.63324
C         -4.78463         3.05022        -0.33570
C         -3.65565         3.68855         0.41044
C         -2.42422         2.92488         0.79430
C         -1.15454         3.67292         0.87716
C          0.04017         2.92250         0.93321
C          1.27732         3.72073         1.35678
C          2.59112         2.96101         1.14723
C          3.75864         3.61102         0.46852
C          4.91075         2.92223         0.22735
C          6.11164         3.56505        -0.43355
C          7.43686         3.01932         0.18484
C          8.65243         3.62208        -0.49003
C          9.77488         2.86355        -0.69666
C         -8.81551         5.23463         0.27849
C         -7.58173         5.84387         0.14443
C         -6.33463         5.02078         0.35111
C         -5.11642         5.74049         0.86607
C         -3.78917         5.00965         1.15137
C         -2.49050         5.80895         0.96594
C         -1.23427         5.09652         1.43428
C          0.03993         5.90538         1.17088
C          1.17714         5.06640         0.64790
C          2.31883         5.67206        -0.08895
C          3.54727         4.82042        -0.43026
C          4.81793         5.64781        -0.67511
C          6.13296         5.10470        -0.04326
C          7.37887         5.77990        -0.60450
C          8.54985         5.05797        -0.74288
C         -7.44945         7.27849         0.06575
C         -6.23742         7.94450         0.20267
C         -5.03370         7.17692         0.50584
C         -3.79444         7.64328         0.12890
C         -2.51380         7.10576         0.55973
C         -1.35887         8.09344         0.88414
C         -0.00195         7.36331         0.84095
C          1.18724         7.97396         0.12416
C          2.40034         7.16567        -0.20918
C          3.39728         7.73537        -1.24643
C          4.78785         7.08121        -1.06886
C          6.04620         7.86002        -0.94753
C          7.26155         7.20491        -0.83845
C         -6.21391         9.40708         0.27365
C         -5.14537        10.26197         0.35675
C         -3.77381         9.86400         0.08277
C         -2.55101        10.31354         0.47644
C         -1.35355         9.46425         0.18951
C         -0.25846         9.97695        -0.41646
C          0.95647         9.16391        -0.81409
C          2.26345         9.92812        -0.92146
C          3.43738         9.25703        -1.09525
C          4.72024         9.93265        -1.13050
C          5.92685         9.29416        -1.05986
C        -10.96642        -0.52982         0.62733
C         -9.65681        -1.24558         0.86375
C         -8.50438        -0.49645         0.14679
C         -7.32595        -1.21343        -0.07445
C         -6.10311        -0.56816        -0.24838
C         -4.93193        -1.50790        -0.08927
C         -3.66598        -0.70101         0.12171
C         -2.37968        -1.36676        -0.26250
C         -1.10914        -0.58046        -0.34387
C          0.23378        -1.28850        -0.50370
C          1.32717        -0.69496         0.39137
C          2.70886        -1.35694         0.11328
C          3.75247        -0.74352         1.13123
C          5.09042        -1.41548         0.97136
C          6.25644        -0.72090         0.36628
C          7.42114        -1.51088        -0.20190
C          8.73275        -0.86274         0.29308
C          9.89139        -1.56104        -0.37427
C         11.08190        -0.78598        -0.59904
C         -9.54313        -2.67229         0.41542
C         -8.27621        -3.40489         0.66549
C         -7.35511        -2.67456        -0.36376
C         -6.22579        -3.43107        -1.00690
C         -4.88018        -2.72208        -1.02030
C         -3.60547        -3.51384        -0.91074
C         -2.39653        -2.89060        -0.16992
C         -1.07382        -3.51175        -0.66055
C          0.18513        -2.80709        -0.25685
C          1.51733        -3.46985        -0.55170
C          2.66102        -2.86899         0.27100
C          3.74833        -3.56428         0.66253
C          5.04102        -2.92359         1.16495
C          6.25106        -3.62360         0.57083
C          7.39762        -2.98454         0.15189
C          8.60469        -3.68998        -0.18728
C          9.78206        -2.96045        -0.49618
C         -8.24930        -4.90835         0.51649
C         -7.26460        -5.60405        -0.11287
C         -6.32995        -4.95946        -1.14010
C         -4.96135        -5.68055        -1.24466
C         -3.61767        -5.04037        -0.84184
C         -2.37650        -5.70484        -1.58405
C         -1.04476        -4.92246        -1.24342
C          0.26406        -5.71857        -1.09684
C          1.48026        -5.01663        -0.54321
C          2.52140        -5.79469         0.24293
C          3.60634        -5.02288         1.04086
C          4.97224        -5.72431         1.13482
C          6.12387        -5.10935         0.35459
C          7.48772        -5.84183         0.64948
C          8.58944        -5.21382        -0.25342
C         -7.23514        -7.06156        -0.03070
C         -6.17755        -7.81307        -0.45822
C         -4.96459        -7.15435        -1.00758
C         -3.65513        -7.89757        -0.86371
C         -2.37500        -7.21277        -1.20346
C         -1.08479        -7.95765        -0.97813
C          0.21580        -7.22995        -1.05180
C          1.50102        -7.97054        -0.76881
C          2.63819        -7.24515        -0.10683
C          3.91097        -8.07795        -0.23706
C          5.00849        -7.11545         1.68287
C          6.71102        -8.17670         1.41205
C          7.14538        -7.30182         0.41228
C         -6.09208        -9.25926        -0.25098
C         -4.90989        -9.88965        -0.07593
C         -3.62596        -9.09992         0.06180
C         -2.35475        -9.90129        -0.05444
C         -1.12330        -9.33172        -0.39546
C          0.08629       -10.02002        -0.16037
C          1.41937        -9.43697        -0.33986
C          2.59057       -10.03934         0.35851
C          3.81614        -9.43323         0.38651
C          5.03157       -10.10288         0.85070
C          6.24010        -9.58140         1.18011
O          3.16544        -1.12535        -1.15018
O          5.29781        -6.12056         2.51785
O          0.94516        -0.48952         1.75476
O         -0.35812        -7.82179        -2.24967
O         -7.34901        -2.85239        -1.77695
O         -3.99540        -2.87058        -2.15675
O          1.16204         5.08375        -0.80027
O         -3.07727        -8.07732        -2.18051
O          3.87763         0.94289        -0.69030
O         -5.14314        -2.24478         1.16038
O          4.78397        -7.77082        -1.03054
O          2.36529         7.98455         0.99473
O         -2.39746         1.89284         1.83649
O          1.81611        -8.98702        -1.71703
O         -0.96608        -3.76173        -2.11668
O          6.12807        -0.80791         1.81612
O          2.04638        -6.83964         1.18521
O         -6.09467         5.09840         1.78960
O          4.97290         5.97147        -2.06023
O         -3.72309         8.71900        -0.75068
O          2.97091         7.36890        -2.53170
O         -3.68678         3.71516        -1.05194
O         -3.80277         4.71230         2.53614
O          0.37522         6.88215         2.17715
O          8.26759         1.18411         1.48458
O          1.39106        -5.41077        -1.95611
O          2.85142         2.21972         2.41004
O         -1.92000        -0.85834        -1.55048
O         -7.93539         3.21293        -1.97551
O         -5.00172        -6.58807        -2.37449
O          6.06405         5.19615         1.30621
O         -3.91221         0.01068         1.37153
O         -9.38166        -1.11494         2.26664
H         -8.63309        -1.72815         2.48814
O         -2.52356        -5.59546        -2.98644
H         -3.03038        -6.38154        -3.29656
O        -10.08729         1.45972        -1.78775
H         -9.42209         2.06186        -2.20468
O          0.62583        -0.99112        -1.85522
H         -0.09229        -1.31907        -2.44117
O         -1.30466         4.84313         2.84500
H         -2.27500         4.65714         3.05837
O          7.24236        -8.04898         2.68356
H          6.85851        -8.72673         3.27435
O         -5.83559         4.58365        -1.85304
H         -6.62075         4.44375        -2.43656
O         -7.03843        -5.18836        -2.37518
H         -6.56261        -5.90570        -2.86098
O          1.17714         4.04887         2.74595
H          1.50652         3.28342         3.26884
O          6.25598         0.77520        -1.54393
H          5.34324         0.59577        -1.87658
O          3.28414         4.18206        -1.71167
H          3.06240         4.90517        -2.34694
O          3.09493        -4.93625         2.39926
H          2.78828        -5.83953         2.64935
O          7.40204        -1.52851        -1.63883
H          7.27648        -0.59981        -1.96461
O          7.91229        -5.55440         1.97279
H          7.37932        -6.08209         2.60909
O         -2.58617        -3.14495         1.24609
H         -3.50542        -2.76429         1.47130
O          8.35573        -5.59795        -1.62020
H          8.94065        -5.06939        -2.20183
O         -3.61705        -8.54197         1.41944
H         -3.72474        -9.28114         2.05399
O          6.08630         3.40142        -1.82808
H          5.15891         3.54260        -2.14353
O          1.93514        -3.10622        -1.88200
H          1.16407        -3.23222        -2.48029
O         -1.62754         8.42936         2.26293
H         -1.10727         7.79832         2.82030
O         -8.13507         3.21992         1.46011
H         -7.60348         3.89386         1.93967
O         -4.48007         1.36786        -2.00688
H         -3.95944         2.15391        -2.29278
O          7.49383         3.52314         1.52725
H          6.81574         3.08869         2.08593
O         -3.49440        -5.46315         0.53826
H         -3.11781        -4.73001         1.09645
O         -7.63033        -3.07385         1.90746
H         -6.67075        -2.77280         1.72530
O         -0.94693         1.54227        -1.45362
H         -1.31663         0.90405        -2.10680
O          5.07474        -3.10168         2.61208
H          4.56284        -3.91437         2.85146
O          3.34372        -0.89015         2.47337
H          3.87944        -1.61079         2.88923
O          8.89791        -1.21851         1.68046
H          8.30199        -0.63729         2.20944
O          0.63793         8.60303        -2.11509
H          1.45451         8.13799        -2.47453
O          5.75275        -5.25774        -1.02896
H          6.56796        -5.25506        -1.58853
O          9.24785         0.98055        -2.03426
H          9.70885         1.53064        -2.70271
H         12.03425        -1.32340        -0.73801
H         12.03218         1.12567        -0.76125
H         10.66758         3.34674        -1.12926
H          9.44905         5.56988        -1.12375
H          8.18668         7.80142        -0.89738
H          6.85253         9.88885        -1.05532
H          4.70522        11.03311        -1.17388
H          2.26168        11.02609        -0.82603
H         -0.30344        11.00990        -0.79779
H         -2.42873        11.24325         1.05236
H         -5.34474        11.31844         0.59716
H         -7.21165         9.86438         0.38763
H         -8.37278         7.86649        -0.05633
H         -9.72095         5.82858         0.07599
H        -10.61621         3.60161        -0.74064
H        -12.03787         1.21658         0.15560
H        -11.87713        -1.04980         0.96390
H        -10.11682        -2.98807        -0.47316
H         -8.97547        -5.46174         1.13359
H         -8.07694        -7.55701         0.47861
H         -7.03252        -9.83102        -0.21670
H         -4.88343       -10.97821         0.08665
H         -2.35812       -10.91913         0.36899
H          0.03047       -10.99856         0.34213
H          2.46427       -11.04844         0.78424
H          4.95054       -11.20196         0.90728
H          6.99911       -10.32249         1.49169
H          6.80506        -7.52638        -0.61094
H          9.59211        -5.61088         0.07097
H         10.67028        -3.52859        -0.82144
