         270
 CSIRO Nanostructure Databank - Neutral Graphene Oxide Data Set
C        -11.20366         0.68507         0.41197
C        -10.02625         1.46078        -0.07165
C         -8.80439         0.69601        -0.47822
C         -7.48318         1.37703        -0.52609
C         -6.35219         0.67138        -0.88781
C         -5.10572         1.40376        -1.21806
C         -3.79896         0.62905        -1.44865
C         -2.47318         1.38771        -1.76739
C         -1.17860         0.68306        -1.24048
C         -0.09855         1.49020        -0.51339
C          1.22602         0.74993        -0.35317
C          2.49841         1.46739        -0.58670
C          3.72949         0.72306        -0.99927
C          4.96277         1.38777        -0.45544
C          6.09617         0.55400         0.04309
C          7.32526         1.23125         0.61055
C          8.61215         0.48709         0.73783
C          9.89131         1.21396         1.21206
C         11.14238         0.47217         0.77523
C         -9.83384         2.86752         0.29332
C         -8.60724         3.48972         0.16794
C         -7.41219         2.77888        -0.23631
C         -6.15499         3.46556        -0.33640
C         -5.04005         2.85432        -0.91042
C         -3.85688         3.65854        -1.42434
C         -2.49383         2.92683        -1.50832
C         -1.21115         3.66071        -1.21150
C          0.05759         2.93475        -0.95115
C          1.22150         3.64898        -0.85110
C          2.50747         2.91633        -0.92722
C          3.80868         3.63310        -0.80035
C          5.15020         2.88750        -0.65920
C          6.10942         3.51850         0.34209
C          7.29938         2.72270         0.82482
C          8.58686         3.45713         0.94502
C          9.89685         2.69490         0.75343
C         -8.51131         4.90447         0.50546
C         -7.33089         5.55616         0.58608
C         -6.03874         4.80076         0.37650
C         -4.94629         5.70830        -0.14217
C         -3.74925         5.08193        -0.80881
C         -2.42536         5.69557        -0.52993
C         -1.21302         5.08536        -0.80820
C          0.01854         5.80209        -0.78269
C          1.25994         5.11722        -0.83950
C          2.47679         5.81593        -0.64952
C          3.70464         5.04767        -0.33019
C          4.94934         5.71892         0.15262
C          6.22386         4.98382         0.26333
C          7.36196         5.62808         0.82035
C          8.57918         4.82231         0.97517
C         -7.31104         6.98352         1.11488
C         -5.98206         7.70619         1.03773
C         -4.82546         6.98512         0.63568
C         -3.55598         7.50505         0.80116
C         -2.35796         6.98781         0.16528
C         -1.19294         7.92095        -0.15757
C          0.00971         7.30570        -0.87134
C          1.25861         7.95021        -0.31918
C          2.47324         7.22802        -0.29593
C          3.65909         7.87875         0.16757
C          5.02249         7.22627         0.11303
C          5.96097         7.68962         1.24614
C          7.30307         6.98608         1.15550
C         -6.00032         9.11708         1.21753
C         -4.96145        10.03291         1.05695
C         -3.57789         9.64181         1.00891
C         -2.57183        10.15759         0.23046
C         -1.31782         9.46967        -0.28312
C         -0.02804        10.00438         0.28623
C          1.18227         9.28229         0.21176
C          2.39204         9.89911         0.66080
C          3.61346         9.22368         0.60834
C          4.86197         9.88539         1.01247
C          5.99156         9.19871         1.26833
C        -11.12358        -0.62064         0.71419
C         -9.79114        -1.34057         0.76579
C         -8.82455        -0.78864        -0.27129
C         -7.56969        -1.55232        -0.51375
C         -6.32346        -0.84652        -1.04402
C         -5.04595        -1.24423        -0.25458
C         -3.75730        -0.89450        -1.08501
C         -2.50468        -1.30721        -0.27390
C         -1.22011        -0.76449        -0.86768
C         -0.01369        -1.49456        -0.36110
C          1.25992        -0.74950        -0.26924
C          2.56054        -1.48219        -0.49574
C          3.72179        -0.75836        -1.11229
C          5.09640        -1.45323        -1.24226
C          6.12494        -0.97365        -0.15732
C          7.52884        -1.52512        -0.50630
C          8.76000        -0.71075        -0.15528
C         10.02046        -1.76441         0.80318
C         11.21211        -0.86375         0.64353
C         -9.85414        -2.84367         0.69175
C         -8.69836        -3.56498         0.48437
C         -7.45639        -2.88494         0.12295
C         -6.23732        -3.48266         0.35398
C         -4.99411        -2.66641         0.34638
C         -3.67576        -3.35330         0.63636
C         -2.43218        -2.80801         0.04421
C         -1.30195        -3.58416        -0.08533
C         -0.05409        -2.97333        -0.72109
C          1.23191        -3.68609        -0.36061
C          2.53263        -2.96854        -0.50046
C          3.67100        -3.79803        -1.07382
C          5.01190        -3.01380        -1.24265
C          6.29432        -3.76766        -0.99517
C          7.57577        -3.01839        -0.67293
C          8.69242        -3.82374         0.06354
C          9.94837        -2.99431         0.05286
C         -8.62002        -5.00146         0.65092
C         -7.40613        -5.62824         0.83949
C         -6.19250        -4.81863         0.89645
C         -5.03397        -5.26202         1.54743
C         -3.66673        -4.76151         1.18301
C         -2.42684        -5.62055         0.96334
C         -1.23514        -4.99818         0.29469
C         -0.03967        -5.70000         0.22653
C          1.22540        -5.01457        -0.05256
C          2.52212        -5.71653         0.22020
C          3.85207        -4.98593        -0.05134
C          4.96953        -5.92043        -0.49942
C          6.27396        -5.26977        -0.81210
C          7.53728        -6.00552        -0.52987
C          8.83696        -5.21763        -0.61073
C         -7.33292        -7.08803         0.76080
C         -6.21298        -7.81152         0.46380
C         -4.85616        -7.24350         0.20661
C         -3.71858        -7.91484         0.96565
C         -2.45037        -7.13946         1.11540
C         -1.16544        -7.89823         1.00274
C          0.05678        -7.15316         0.56955
C          1.23868        -7.94686        -0.01872
C          2.53261        -7.21063         0.34361
C          3.79044        -7.96848         0.13753
C          4.96219        -7.35379        -0.13473
C          6.21397        -8.15285        -0.46571
C          7.48432        -7.33298        -0.27417
C         -6.16546        -9.25574         0.21869
C         -5.01193        -9.96514         0.25508
C         -3.76070        -9.45533         0.94279
C         -2.42701       -10.03279         0.53583
C         -1.23388        -9.37052         0.74755
C          0.01345       -10.06215         0.70341
C          1.25226        -9.39669         0.58665
C          2.47445       -10.01192         0.74807
C          3.69643        -9.47868         0.05027
C          5.00535       -10.09446         0.48702
C          6.17179        -9.46584         0.28432
O          3.25459         3.34404        -2.12404
O         -9.18980        -0.97487         2.05809
H         -9.65855        -1.47493         2.75882
O          9.89289         1.16602         2.65403
H          8.95234         1.24271         2.94812
O          3.98097         5.15844         1.13683
O          2.01605         1.28830         0.77847
O         -1.69330         3.53208        -2.59533
O         -8.69880        -1.55891        -1.49137
O         -4.35185        -2.54579         1.66649
O         -6.17740        -1.22804        -2.45963
O         -0.08412         7.64754        -2.35365
O          2.97138        -2.22864         0.69745
O          1.20025        -8.10897        -1.38526
O         -5.19146        -6.02913         2.62980
H         -4.30174        -6.25516         3.00533
O         -0.17953        -3.03626        -2.15982
H         -0.14419        -3.97368        -2.44294
O          0.51823        -1.18907         0.94252
O         -5.49809         3.55657        -3.21320
H         -5.42413         2.62341        -3.54321
O         -4.67486         0.92464        -2.56212
O         -2.68539        -4.94116         2.24743
O          5.80500        -3.49172        -2.35955
O         -4.72190         5.94330        -1.54436
O          8.18949        -4.06863         1.37715
H          8.38372        -3.28999         1.94885
O          9.50147        -1.78001         2.09597
H          9.70553        -0.92514         2.54394
O          4.99417         0.93950         0.93937
O         -0.88225        -0.35300        -2.22302
O          5.62774        -1.00606        -2.48871
H          5.97659        -1.79879        -2.96582
O          7.65993         0.42039         1.81866
O          5.65319         7.60596        -1.14053
H          4.96565         7.64536        -1.83745
O         -0.66111         1.61621         0.82972
H          0.09381         1.77474         1.44293
O          3.50884         0.09320        -2.28649
O         -3.68468        -1.66307        -2.27776
H         -4.20792        -1.20375        -2.97530
O          3.24859        -4.28881        -2.33960
H          4.02213        -4.74738        -2.74815
O         -9.72862         1.17480        -1.50554
O          6.20533         3.07484         1.73276
O          5.42632        -5.83590        -1.89779
O          7.84533        -2.14294        -1.80464
O         -3.25545        -7.49309         2.28975
O         -3.31668         8.47267         1.77078
O         -4.57149        -6.56196        -0.77324
O         -3.92766        -9.92324         2.31246
H         -3.36226        -9.35069         2.88105
O          5.83712         3.04785        -1.92427
H          5.16422         2.94999        -2.63793
O          5.40256         7.28180         2.52404
H          5.08696         6.35332         2.44829
O         -5.55364         4.45039         1.71935
H         -6.21854         3.86326         2.13819
O         -1.22663         7.25957         1.11218
O         -2.55395        -0.62753         1.00825
H         -1.69760        -0.77008         1.47086
O         -5.11727        -0.33918         0.86837
H         -4.48801        -0.67682         1.55514
O          2.50756        -6.37672         1.53705
O         -0.16764        -7.47271         1.98189
O         -4.13088         3.89120        -2.90225
O         -2.39975         1.24347        -3.19557
H         -1.83006         1.96565        -3.54571
O          6.18183        -8.48296        -1.87981
H          5.92217        -7.66152        -2.35892
O         -1.37218         9.79542        -1.69786
H         -0.59293         9.40018        -2.15651
O          9.41960        -0.29898        -1.29875
H          9.21783        -0.94569        -2.01778
O          4.34726        -4.43877         1.18135
H          3.59905        -4.08745         1.70962
O         -8.34904         7.75053         0.49228
H         -8.17496         7.77731        -0.47117
O          1.11924         7.16125        -2.98924
H          0.83082         6.29714        -3.37420
O         -7.06035        -0.36822        -3.22843
H         -7.96175        -0.69925        -2.95598
O          3.45181        -9.77321        -1.35842
H          2.65290        -9.22912        -1.62284
O          5.80771        -1.58669         1.09528
H          5.22100        -0.97819         1.60088
O         10.18181         2.67518        -0.65161
H         10.15261         3.59269        -0.99256
O          9.20240        -5.04397        -1.98240
H          8.40605        -4.79904        -2.49860
H         12.16109        -1.32629         0.32943
H         12.04864         1.07607         0.61774
H         10.72100         3.23837         1.29659
H          9.53594         5.35973         1.08066
H          8.17236         7.45319         1.64432
H          6.90797         9.71869         1.58561
H          4.84357        10.98214         1.10613
H          2.35361        10.93064         1.04033
H         -0.03428        10.97031         0.81230
H         -2.80232        11.07979        -0.32638
H         -5.22167        11.09049         0.89891
H         -7.01107         9.54505         1.32175
H         -7.58497         6.93097         2.20865
H         -9.44552         5.44330         0.72628
H        -10.69137         3.43964         0.67865
H        -12.17143         1.20929         0.45765
H        -12.02483        -1.16672         1.03513
H        -10.77298        -3.35667         1.01306
H         -9.54396        -5.59664         0.59657
H         -8.28737        -7.63126         0.86276
H         -7.09833        -9.75029        -0.09676
H         -5.03666       -11.03966         0.01950
H         -2.39201       -11.11812         0.35086
H         -0.01083       -11.15754         0.58539
H          2.53731       -10.96096         1.30726
H          4.97876       -11.07339         0.99137
H          7.12007        -9.92629         0.60238
H          8.42189        -7.87917        -0.08048
H          9.65827        -5.78469        -0.11053
H         10.49563        -3.00218        -0.90429
