         324
 CSIRO Nanostructure Databank - Neutral Graphene Oxide Data Set
C          1.26787         3.40181         0.64446
C          0.14372         4.12681         0.89805
C          1.24044         6.25620         0.31751
C          0.08718         5.52924         0.63695
C          1.21490         7.70445         0.20379
C          0.05155         8.43430         0.01353
C          1.28295        10.55384        -0.26118
C          0.07723         9.83170        -0.17138
C          1.28165        11.99045        -0.62875
C          0.06267        12.80685        -0.54041
C          1.33314        14.92223        -0.41093
C          0.10771        14.16390        -0.54857
C          1.31922        16.33681        -0.35114
C          0.12850        17.11444        -0.62608
C          1.51108        19.16804        -0.84594
C          0.18331        18.45587        -0.79556
C          1.42607        20.66676        -0.62276
C          0.34207        21.38182        -1.14623
C          1.33414        23.52093        -0.52727
C          0.28623        22.77417        -1.09879
C          1.29717        24.98908        -0.46971
C          0.15673        25.70994        -0.84564
C          1.27486        27.84143        -0.45753
C          0.14851        27.11031        -0.84008
C          1.25316        29.29137        -0.47464
C          3.74815         3.37629         0.23269
C          2.43894         4.04915        -0.03330
C          3.71014         6.21057         0.04886
C          2.48462         5.54236         0.17522
C          3.70214         7.68185        -0.11740
C          2.50876         8.45146         0.40469
C          3.76028        10.58986        -0.02311
C          2.51784         9.89200        -0.06383
C          3.79754        12.01283        -0.02520
C          2.61435        12.75939        -0.46485
C          3.71596        14.84886         0.25762
C          2.56193        14.20724        -0.22855
C          3.61147        16.27491         0.64862
C          2.48117        17.06800         0.10238
C          3.60740        19.23719         0.63220
C          2.51731        18.45225         0.03321
C          3.69249        20.69037         0.40482
C          2.50874        21.38963        -0.05652
C          3.54750        23.56743         0.59239
C          2.44022        22.80911        -0.00338
C          3.62607        25.01409         0.34294
C          2.45936        25.71983        -0.06164
C          3.61904        27.88095         0.37034
C          2.46604        27.15591        -0.05175
C          3.57372        29.41743         0.49382
C          2.30470        30.01673        -0.05422
C          6.19840         3.37947         0.18896
C          4.95385         4.07136         0.15514
C          6.19855         6.23044         0.01917
C          4.94945         5.51882         0.02496
C          6.24312         7.65287         0.01367
C          5.00633         8.42273        -0.15482
C          6.20845        10.54493         0.31799
C          5.00875         9.87682         0.11066
C          6.20979        11.98389         0.52408
C          4.96295        12.71551         0.37182
C          6.10274        14.85905         1.02511
C          4.91191        14.13135         0.53345
C          6.16709        16.32043         0.86294
C          4.89013        17.00825         1.03721
C          6.15513        19.24144         1.04850
C          4.87601        18.50161         1.09407
C          6.09852        20.64320         0.98351
C          4.87422        21.34997         0.76727
C          6.08550        23.59541         0.85378
C          4.84740        22.82522         0.93931
C          6.08132        24.99379         0.72165
C          4.81973        25.70472         0.57384
C          6.06599        27.75689         0.89158
C          4.80633        27.14012         0.62685
C          6.03387        29.85893         0.26037
C          4.76462        30.07664        -0.20408
C          8.66070         3.36966         0.02238
C          7.42841         4.06102         0.09287
C          8.65864         6.20528         0.07720
C          7.42445         5.50378         0.06459
C          8.66347         7.61897         0.22796
C          7.45985         8.35085         0.19959
C          8.66481        10.49264         0.44597
C          7.47190         9.80943         0.32830
C          8.68133        11.92841         0.76325
C          7.40288        12.65752         0.76076
C          8.72295        14.83328         1.06374
C          7.41960        14.07472         1.14542
C          8.68860        16.32968         1.16200
C          7.36481        17.06032         1.44402
C          8.62800        19.22521         1.01004
C          7.39495        18.53500         1.07831
C          8.65834        20.69251         1.22845
C          7.32422        21.44612         1.36684
C          8.60886        23.53384         0.49519
C          7.33174        22.80700         0.69893
C          8.62699        25.02573         0.70748
C          7.30263        25.72116         0.56558
C          8.47667        27.92926         0.25645
C          7.30773        27.14483         0.54854
C          8.48902        29.36991         0.05491
C          7.33927        30.19642        -0.17231
C         11.10505         3.36354        -0.37850
C          9.88907         4.05785        -0.13106
C         11.10471         6.21195        -0.30735
C          9.89217         5.49047        -0.07253
C         11.13966         7.63387        -0.18552
C          9.95695         8.30939         0.36469
C         11.19257        10.54745        -0.00945
C          9.97822         9.80967         0.43870
C         11.19461        11.95481         0.13569
C          9.99413        12.67520         0.64860
C         11.07109        14.86207         0.21946
C          9.94356        14.15769         0.51627
C         11.03232        16.34811         0.06458
C          9.79397        17.09678         0.49740
C         11.07714        19.24198         0.52540
C          9.84939        18.55493         0.74776
C         11.14480        20.65562         0.51231
C          9.95548        21.42805         0.90506
C         11.06636        23.54635         0.13819
C          9.93019        22.86492         0.59767
C         10.98627        24.93308        -0.19885
C          9.72197        25.64879        -0.12351
C         10.96308        27.87482        -0.30826
C          9.66628        27.20185        -0.23350
C         10.97885        29.29771        -0.16518
C          9.74293        29.99975        -0.12364
C         13.49197         3.39497        -1.04719
C         12.29376         4.05384        -0.68628
C         13.37997         6.22939        -1.17819
C         12.28161         5.49927        -0.67497
C         13.20033         7.61202        -1.34898
C         12.23466         8.38597        -0.65171
C         13.56252        10.60036        -0.67185
C         12.34370         9.85445        -0.48691
C         13.56468        12.00763        -0.42807
C         12.36864        12.68582        -0.09309
C         13.51425        14.89052        -0.48406
C         12.41381        14.16009         0.26277
C         13.52355        16.41375        -0.41473
C         12.29800        17.12107         0.03378
C         13.56995        19.21331         0.40836
C         12.28880        18.48130         0.25442
C         13.57245        20.67177         0.20908
C         12.34911        21.35889         0.17092
C         13.43718        23.46220        -0.55667
C         12.31940        22.80696        -0.07870
C         13.45148        24.92274        -0.84953
C         12.14547        25.68242        -0.71698
C         13.39292        27.85237        -0.51035
C         12.16720        27.16200        -0.50657
C         13.42598        29.26936        -0.29026
C         12.21227        29.97625        -0.16409
C         15.87587         3.39094        -1.52492
C         14.68388         4.09010        -1.39468
C         16.01782         6.34282        -1.46146
C         14.65331         5.56716        -1.55446
C         16.05668         7.75184        -0.99043
C         15.03932         8.61334        -1.30176
C         16.06538        10.61894        -0.55520
C         14.88503         9.96438        -0.81959
C         16.09239        12.08111        -0.87354
C         14.80161        12.78252        -0.52157
C         16.05066        14.88626        -0.87142
C         14.79629        14.15363        -0.56862
C         16.05066        16.41728        -0.80670
C         14.81552        17.09640        -0.39373
C         16.17102        19.20016         0.05308
C         14.89132        18.41996         0.18600
C         16.13387        20.69154         0.00370
C         14.80263        21.32569        -0.30839
C         15.86023        23.64160        -1.31781
C         14.69218        22.74158        -0.87133
C         15.95169        25.01737        -0.70346
C         14.72900        25.67045        -0.71819
C         15.98020        27.88397        -0.51446
C         14.66339        27.14089        -0.75120
C         15.89513        29.28765        -0.05321
C         14.66111        29.94950        -0.08139
C         18.28475         3.18899        -0.92820
C         17.19975         4.02103        -1.48389
C         18.33790         6.05712        -0.37422
C         17.28330         5.54707        -1.29000
C         18.28994         7.38211         0.14292
C         17.31350         8.35287        -0.44783
C         18.35970        10.69813         0.40826
C         17.33783         9.87496        -0.33202
C         18.46331        12.09391         0.11561
C         17.33379        12.81411        -0.44560
C         18.59183        14.93467        -0.59781
C         17.33165        14.17855        -0.61724
C         18.59975        16.40381        -0.63646
C         17.35558        17.12484        -0.64059
C         18.54127        19.25628        -0.89757
C         17.36212        18.50434        -0.47407
C         18.54860        20.75883        -0.90493
C         17.37214        21.44455        -0.32673
C         18.61487        23.57684        -0.18942
C         17.50072        22.71634         0.17176
C         18.48250        25.00300        -0.20110
C         17.20968        25.69672        -0.38337
C         18.37485        27.83052         0.13441
C         17.19910        27.09938        -0.22712
C         18.30838        29.24170         0.41083
C         17.06766        29.92655         0.37433
C         19.32461         3.75197        -0.27729
C         20.31678         5.59371         0.99866
C         19.34562         5.16120         0.07274
C         20.23394         6.85903         1.55643
C         19.22070         7.73704         1.13530
C         20.30015        10.93251         1.89373
C         19.26908        10.16046         1.32882
C         20.48984        12.24361         1.47710
C         19.58503        12.83991         0.58282
C         20.85032        15.09087         0.60003
C         19.80949        14.20934         0.06809
C         20.89906        16.40872         0.25094
C         19.81972        17.07666        -0.42411
C         21.09762        19.32800        -0.56270
C         19.90515        18.49106        -0.81578
C         21.08715        20.67861        -0.57771
C         19.87695        21.49552        -0.81324
C         21.01486        23.73382        -0.50054
C         19.84946        22.94429        -0.45673
C         20.93649        25.09298        -0.24671
C         19.69137        25.75425        -0.10950
C         20.79753        27.92784         0.45631
C         19.64000        27.17964         0.15361
C         20.71863        29.29057         0.75435
C         19.49242        29.94450         0.73794
O          9.33071        26.29456        -1.35424
O         14.31399        18.61684         1.52254
O         10.00504        16.76030        -0.91715
O         13.18573        15.63661        -1.66670
O         10.19776         8.98934         1.65045
O          6.09986        29.00918         1.43934
O          3.90534        18.97267         2.05534
O         19.17315        21.29444        -2.09572
O         14.05501         8.25643        -2.23298
O         17.91996         9.20769        -1.50741
O          9.55928        21.08458         2.30748
O          4.23673         8.10307        -1.39721
O          9.53258        12.21444         1.95713
O          2.11646        12.31698        -1.77793
O          7.87519        22.95798        -0.65817
O         17.68373         4.92028        -2.53735
O         16.00274        15.68709        -2.09212
O          9.10982        15.53331         2.30645
O         19.64662        14.30945        -1.37561
O         16.32718        20.01802         1.29256
O          3.97762        16.43390         2.05307
O         15.44971        27.69698        -1.86199
O         19.10068         8.89860         1.90029
O          6.62954        14.36919         2.33446
O         16.52559        23.36051        -2.29321
O         19.20326        18.72124        -2.06619
O          3.89619        23.23743         1.97670
O         14.58703        21.57808        -1.74649
O         12.65171        25.26746        -2.03673
O         15.34530         6.09129        -2.71724
O          3.57899        29.74072         1.90806
H          4.48077        29.53901         2.24948
O          7.15454        21.77548         2.77236
H          7.20310        20.94377         3.28997
O          7.15299        17.06183         2.87773
H          7.11890        16.11287         3.15496
O         12.83344        14.23345         1.66367
H         12.14126        13.80669         2.21432
O         16.60789        23.20632         1.09461
H         16.13008        22.45736         1.50948
O          2.72043         8.49515         1.86353
H          1.93252         8.91654         2.26766
O          2.19957         3.86671        -1.50193
H          2.90049         4.37243        -1.96799
O          2.00418        19.03214        -2.23213
H          1.94337        18.08264        -2.47160
O          9.06025        25.21575         2.09410
H          8.43948        24.73427         2.68235
O         16.12924        12.07849        -2.34700
H         16.28046        13.00042        -2.65003
H          1.30327         2.32245         0.85201
H         -0.74433         3.63945         1.32653
H         -0.86379         6.05376         0.80439
H         -0.91700         7.91981        -0.06330
H         -0.87775        10.34462        -0.34619
H         -0.91430        12.30660        -0.48070
H         -0.84572        14.70925        -0.53197
H         -0.84386        16.60730        -0.69632
H         -0.74268        19.00907        -1.00528
H         -0.48188        20.84749        -1.63804
H         -0.58422        23.27972        -1.53725
H         -0.75552        25.18336        -1.15625
H         -0.76109        27.64634        -1.14645
H          0.33961        29.78742        -0.83571
H          3.76380         2.27841         0.30893
H          2.25002        31.11538        -0.05575
H          6.19420         2.28150         0.25955
H          4.60362        30.62926        -1.13908
H          8.65770         2.26974         0.01716
H          7.50569        31.15798        -0.67997
H         11.09464         2.26453        -0.41497
H          9.76779        31.09467        -0.22843
H         13.52325         2.29543        -1.01574
H         12.23247        31.06784        -0.03209
H         15.85168         2.30404        -1.34374
H         14.62723        31.01647         0.18549
H         18.22632         2.09827        -1.05878
H         17.03039        30.98646         0.66663
H         20.13736         3.12314         0.11536
H         21.10000         4.89459         1.32360
H         20.93921         7.18390         2.33187
H         20.97425        10.47379         2.62805
H         21.34447        12.81280         1.86582
H         21.62858        14.67857         1.25705
H         21.75113        17.01419         0.59142
H         22.04147        18.81409        -0.32759
H         22.01994        21.21128        -0.33709
H         21.98994        23.27295        -0.70863
H         21.86709        25.67476        -0.22683
H         21.78175        27.44243         0.48238
H         21.63407        29.84566         1.00154
H         19.43240        31.01899         0.96187
