         634
 CSIRO Nanostructure Databank - Neutral Graphene Oxide Data Set
C         23.03180        69.78892        -0.52124
C         22.98616        71.21647        -0.49389
C         21.76864        71.92380        -0.59864
C         22.93473        74.05036        -0.45773
C         21.75422        73.32252        -0.57794
C         25.53678        65.56230        -0.46025
C         25.47572        66.95993        -0.27113
C         24.29299        67.66703        -0.48674
C         25.47065        69.83546        -0.22402
C         24.23129        69.09385        -0.37833
C         25.44726        71.26389        -0.27281
C         24.20576        71.95486        -0.37542
C         25.40610        74.09964        -0.23649
C         24.18404        73.38479        -0.35733
C         27.97609        61.28529        -0.51576
C         27.99745        62.69972        -0.50916
C         26.77166        63.43411        -0.55604
C         28.00241        65.51058        -0.04193
C         26.72859        64.81343        -0.34859
C         27.98674        66.99019         0.22817
C         26.64209        67.71164         0.35547
C         27.91463        69.86889        -0.08191
C         26.68834        69.15912        -0.06486
C         27.89952        71.29283        -0.13506
C         26.66271        71.99036        -0.17716
C         27.86978        74.14037        -0.03343
C         26.63629        73.43270        -0.15729
C         30.35859        56.93551         0.00985
C         30.33938        58.35220        -0.16291
C         29.16061        59.10223        -0.30634
C         30.41246        61.23700        -0.38336
C         29.16111        60.52898        -0.41538
C         30.46499        62.66761        -0.46431
C         29.25008        63.40547        -0.47870
C         30.45232        65.58834        -0.43181
C         29.27628        64.84773        -0.40401
C         30.42813        67.04417        -0.32054
C         29.22079        67.74915        -0.07920
C         30.37850        69.92555        -0.28850
C         29.17691        69.17155        -0.11926
C         30.34981        71.35505        -0.31928
C         29.13200        72.02561        -0.17913
C         30.32740        74.16539         0.15991
C         29.09726        73.47700        -0.05750
C         32.87641        52.71034         0.44518
C         32.84527        54.10167         0.31938
C         31.61130        54.82321         0.27074
C         32.85792        56.92043        -0.25864
C         31.56391        56.21108         0.07975
C         32.82790        58.39038         0.02902
C         31.60377        59.06299        -0.09936
C         32.83198        61.16594        -0.09383
C         31.59769        60.48249        -0.18381
C         32.87129        62.55200        -0.43775
C         31.73048        63.34966        -0.54508
C         32.94277        65.69112        -0.92329
C         31.79066        64.87532        -0.33934
C         32.93118        67.20182        -0.89740
C         31.61965        67.82083        -0.48938
C         32.88510        69.96213        -0.58593
C         31.60463        69.21308        -0.42546
C         32.88836        71.45252        -0.72113
C         31.54871        72.20074        -0.74514
C         32.76472        74.15765         0.33663
C         31.56181        73.52918        -0.01613
C         35.41194        48.46324         0.82323
C         35.37110        49.87646         0.58230
C         34.14362        50.58414         0.59852
C         35.34732        52.70869         0.42247
C         34.10670        51.98510         0.48593
C         35.34371        54.12588         0.40009
C         34.10268        54.83826         0.31357
C         35.31619        56.97243         0.39953
C         34.10261        56.23288         0.23680
C         35.29814        58.39772         0.46180
C         34.03953        59.09460         0.28124
C         35.21565        61.30725         0.74332
C         34.02321        60.50220         0.27067
C         35.31153        62.62226         0.01612
C         34.21813        63.02059        -0.67278
C         35.46088        65.74143        -0.66667
C         34.19712        65.17572        -1.10421
C         35.43779        67.15528        -0.34970
C         34.08658        67.77693        -0.06584
C         35.30205        69.97350         0.05855
C         34.13456        69.27800        -0.18794
C         35.33789        71.42097         0.08945
C         34.20244        72.23682        -0.52205
C         35.19305        74.21000         0.60679
C         34.03892        73.55776         0.19837
C         37.86309        44.22546         1.09645
C         37.85554        45.61104         0.80696
C         36.61420        46.32040         0.77661
C         37.73255        48.42312        -0.07096
C         36.57366        47.70841         0.63073
C         37.90495        49.84537         0.52081
C         36.59253        50.58963         0.40950
C         37.81450        52.74198         0.24997
C         36.58799        51.99961         0.36844
C         37.82281        54.13913         0.38134
C         36.57423        54.84762         0.43199
C         37.78459        56.99582         0.60786
C         36.55561        56.26573         0.48903
C         37.73752        58.40631         0.74573
C         36.51714        59.12642         0.66010
C         37.71865        61.31696         0.59839
C         36.53540        60.57395         0.64191
C         37.77730        62.75415         0.37615
C         36.47310        63.53953         0.33173
C         37.88406        65.63936        -0.25444
C         36.54516        64.93629        -0.32004
C         37.82541        67.10264         0.16233
C         36.57442        67.82144         0.07040
C         37.68560        69.91902         0.71117
C         36.53188        69.24571         0.34346
C         37.70191        71.35639         0.81800
C         36.47532        72.07943         0.52202
C         37.61906        74.21733         0.98124
C         36.46980        73.53996         0.66474
C         40.27998        40.05244         0.61107
C         40.30244        41.38838         1.02567
C         39.06466        42.06186         1.57681
C         40.27504        44.27376         1.30157
C         39.06302        43.54505         1.27518
C         40.28904        45.65472         1.01921
C         39.09004        46.30877         0.66217
C         40.34974        48.44727         0.15951
C         39.09639        47.61675        -0.12746
C         40.35772        49.81282         0.15009
C         39.06095        50.51965        -0.23428
C         40.36341        52.76599         0.22297
C         39.07042        52.03504        -0.05302
C         40.30295        54.19789         0.57145
C         39.06899        54.87898         0.50063
C         40.26658        57.03763         0.77637
C         39.03353        56.30101         0.63727
C         40.25447        58.42156         0.94857
C         38.97819        59.12204         1.05695
C         40.27285        61.34117         0.76490
C         38.98007        60.65120         0.96620
C         40.25476        62.75317         0.52950
C         38.97697        63.43722         0.42872
C         40.24976        65.65800         0.44287
C         38.92956        64.93665         0.61196
C         40.24398        67.01746         0.61921
C         38.95973        67.72254         0.62312
C         40.20560        69.89256         1.18721
C         38.90901        69.14613         1.01433
C         40.17255        71.37178         1.07435
C         38.89730        72.04506         1.03758
C         40.15321        74.21100         0.86234
C         38.90017        73.52312         1.34025
C         42.65064        35.96155        -0.96094
C         42.63521        37.30026        -0.48176
C         41.47019        37.98684        -0.14556
C         42.68601        40.10485         0.26892
C         41.47202        39.36968         0.25133
C         42.69475        41.47369         0.61140
C         41.51017        42.11813         1.02885
C         42.82270        44.27555         1.40648
C         41.53376        43.51222         1.64649
C         42.83824        45.66611         1.31938
C         41.54402        46.48001         1.26132
C         42.85626        48.48630         0.46022
C         41.63019        47.64058         0.21368
C         42.81715        49.84549         0.61310
C         41.56530        50.59146         0.44527
C         42.75677        52.71316         1.10002
C         41.56323        51.96689         0.53903
C         42.78011        54.20446         0.80446
C         41.53187        54.91343         0.73101
C         42.75505        57.05745         0.83061
C         41.52313        56.32508         0.79455
C         42.76511        58.47288         0.91822
C         41.50126        59.19138         1.31134
C         42.71523        61.33777         0.72964
C         41.47819        60.64320         0.86874
C         42.70463        62.75756         0.55734
C         41.47127        63.45421         0.45545
C         42.75123        65.63489         0.47171
C         41.49309        64.91400         0.05621
C         42.72195        67.07505         0.63708
C         41.49086        67.77434         0.71147
C         42.68680        69.90004         0.99099
C         41.48248        69.17459         0.94089
C         42.68630        71.40232         1.23748
C         41.35621        72.07837         0.97935
C         42.59837        74.22384         0.57442
C         41.35183        73.52887         0.80026
C         45.05218        33.34523        -2.12765
C         43.86423        33.96031        -1.74268
C         45.10590        36.05051        -1.31373
C         43.84735        35.31355        -1.30815
C         45.14194        37.36392        -0.90640
C         43.94715        37.96134        -0.29424
C         45.19759        40.22122        -0.14965
C         43.97347        39.41790         0.08578
C         45.18319        41.54678         0.23659
C         43.96271        42.16834         0.68687
C         45.32926        43.92668         1.58160
C         44.01235        43.45757         1.22356
C         45.27744        45.96628         1.70549
C         44.07367        46.42218         1.21154
C         45.34892        48.53261         0.80784
C         44.15095        47.71470         0.39931
C         45.31399        49.90001         0.80664
C         44.05888        50.62670         0.72040
C         45.29328        52.80717         0.54710
C         44.04021        51.99854         0.76830
C         45.25585        54.20221         1.16653
C         43.97090        54.91845         0.84091
C         45.22303        57.06216         0.70362
C         43.99010        56.34777         0.77568
C         45.20876        58.47576         0.63151
C         43.96859        59.18419         0.77260
C         45.17351        61.33388         0.53268
C         43.96013        60.62807         0.71849
C         45.16791        62.76534         0.47326
C         43.94328        63.47984         0.51053
C         45.23236        65.60958         0.88468
C         43.92640        64.92500         0.56061
C         45.20802        67.11177         0.67794
C         43.94458        67.80131         0.72593
C         45.19092        69.94598         0.89342
C         43.91102        69.21298         0.85317
C         45.15358        71.45455         0.74678
C         43.80241        72.05308         0.40529
C         45.04667        74.23332         0.23159
C         43.81694        73.56458         0.45584
C         46.27583        34.02906        -2.10233
C         47.57293        36.06387        -1.57053
C         46.34231        35.38252        -1.70926
C         47.63655        37.43104        -1.20862
C         46.34357        38.21243        -1.24288
C         47.63186        40.20733        -0.48280
C         46.41456        39.56270        -0.57226
C         47.68732        41.66962        -0.22519
C         46.37676        42.43843        -0.04464
C         47.77644        44.24557         1.20471
C         46.50931        43.53529         0.99758
C         47.78840        45.69789         1.37897
C         46.57945        46.48149         1.35227
C         47.83517        48.54328         1.00357
C         46.59737        47.84626         1.04318
C         47.84730        49.95466         1.00780
C         46.55232        50.63537         1.13574
C         47.81299        52.83564         0.87113
C         46.54002        52.12328         1.06469
C         47.76673        54.25526         0.71007
C         46.52087        54.95687         0.79650
C         47.69731        57.07297         0.38632
C         46.48417        56.34736         0.63709
C         47.66424        58.49722         0.26486
C         46.43261        59.20135         0.43114
C         47.61996        61.33770         0.10902
C         46.41377        60.62282         0.37631
C         47.58807        62.77529         0.03012
C         46.40794        63.45904         0.25564
C         47.69845        65.61287         0.35950
C         46.36356        64.95851         0.06922
C         47.70480        67.13245         0.46439
C         46.39707        67.82207         0.52051
C         47.58889        69.97382         0.19585
C         46.42247        69.24989         0.51112
C         47.55361        71.41659         0.09274
C         46.35412        72.13403         0.25955
C         47.50217        74.25053        -0.17815
C         46.28601        73.55641         0.06806
C         48.83563        38.08968        -0.95076
C         50.09008        40.07383        -0.20953
C         48.88474        39.47565        -0.58199
C         50.20005        41.42675         0.27018
C         48.97577        42.27044         0.23917
C         50.27110        44.15613         1.31784
C         48.97336        43.56032         0.97694
C         50.29252        45.68912         1.31116
C         49.00961        46.39485         1.19934
C         50.27663        48.52284         0.92379
C         49.04644        47.80809         1.05072
C         50.27695        49.93648         0.85504
C         49.05551        50.66947         0.95326
C         50.24481        52.85179         0.78326
C         49.02929        52.12898         0.88655
C         50.23303        54.24291         0.50379
C         48.98002        54.95915         0.46869
C         50.12725        57.10026        -0.04374
C         48.93596        56.37827         0.26727
C         50.10726        58.49657        -0.17271
C         48.87149        59.21802         0.00940
C         50.08536        61.37938        -0.23227
C         48.84097        60.63488        -0.08595
C         50.08773        62.75997        -0.32426
C         48.79646        63.50549        -0.53065
C         50.07095        65.68910        -0.29898
C         48.89755        64.95387        -0.11775
C         50.05670        67.14300        -0.36757
C         48.87184        67.85708        -0.04091
C         49.92582        70.00396        -0.62619
C         48.79749        69.27513        -0.17344
C         49.90932        71.40657        -0.62676
C         48.73892        72.12127        -0.28686
C         49.96312        74.25804        -0.46305
C         48.71684        73.56686        -0.33843
C         51.40017        41.98080         0.62593
C         52.57563        44.17948         0.20062
C         51.59564        43.39198         1.12706
C         52.71790        45.65404         0.54936
C         51.52311        46.40095         0.89880
C         52.69056        48.50886         0.20475
C         51.49935        47.77749         0.76995
C         52.72676        49.95902         0.62100
C         51.55141        50.63950         0.79827
C         52.77761        52.86342         0.56423
C         51.51899        52.12442         0.91983
C         52.69157        54.27377         0.13698
C         51.44702        54.93114         0.19072
C         52.62330        57.09830        -0.23015
C         51.36516        56.30605        -0.41404
C         52.58562        58.48742        -0.78976
C         51.32945        59.25156        -0.39423
C         52.62977        61.38430        -0.23781
C         51.32444        60.62529        -0.32048
C         52.57455        62.84750        -0.58583
C         51.35433        63.56205        -0.08024
C         52.46296        65.69241        -0.84555
C         51.29642        64.99648        -0.52804
C         52.42808        67.12701        -1.03443
C         51.20702        67.82436        -0.83988
C         52.40365        70.03420        -1.14005
C         51.09455        69.27725        -1.25232
C         52.38765        71.38968        -1.09878
C         51.07999        72.15575        -1.21554
C         52.40265        74.24186        -0.61065
C         51.15800        73.58913        -0.73404
C         53.90942        46.32310         0.36245
C         55.18354        48.45188         0.24984
C         53.99474        47.76608         0.37669
C         55.24292        49.89457         0.18170
C         54.06231        50.66664         0.73020
C         55.11469        52.72972        -0.50930
C         53.93318        52.04444         0.09579
C         55.10671        54.22235        -0.54892
C         53.88616        54.92692        -0.24896
C         55.00633        57.00499        -1.08247
C         53.95156        56.42150        -0.11115
C         55.08727        58.51743        -1.06400
C         53.89535        59.23942        -0.46542
C         55.02264        61.40255        -1.09953
C         53.75129        60.65658        -0.90518
C         54.85145        62.82755        -1.64248
C         53.68235        63.53230        -0.98817
C         54.90543        65.66603        -1.21754
C         53.69719        64.98093        -1.03892
C         54.88613        67.10966        -1.24038
C         53.65617        67.80766        -1.26452
C         54.93021        69.96844        -1.20864
C         53.65013        69.27961        -1.59336
C         54.94857        71.43003        -1.23905
C         53.63733        72.18008        -1.24706
C         54.86554        74.23196        -0.55743
C         53.64167        73.59380        -0.80279
C         56.37319        50.57237        -0.20959
C         57.56898        52.70184        -0.68857
C         56.41957        52.00964        -0.45090
C         57.50622        54.08385        -1.30274
C         56.29160        54.87768        -0.83860
C         57.39465        56.88124        -1.94826
C         56.38885        56.38835        -0.84957
C         57.41830        58.46409        -2.08986
C         56.16415        59.15981        -1.56365
C         57.41565        61.37237        -1.59516
C         56.11310        60.64633        -1.87077
C         57.38375        62.77150        -1.43633
C         56.17776        63.54019        -1.44968
C         57.40237        65.67462        -1.22923
C         56.16784        64.94342        -1.30466
C         57.36650        67.12246        -1.12262
C         56.12989        67.82136        -1.16144
C         57.34796        69.97337        -0.76799
C         56.11906        69.26204        -1.03997
C         57.34024        71.40257        -0.66078
C         56.17270        72.13460        -0.83193
C         57.27991        74.21076        -0.08239
C         56.11989        73.55633        -0.54962
C         58.75234        54.93224        -1.18767
C         59.90358        57.07884        -1.41337
C         58.73446        56.26904        -1.52190
C         59.89202        58.48454        -1.42451
C         58.64368        59.20209        -1.56870
C         59.90939        61.33268        -1.51867
C         58.61806        60.59622        -1.48340
C         59.90887        62.82233        -1.48736
C         58.63652        63.47348        -0.96814
C         59.85168        65.63991        -0.91685
C         58.62736        64.97478        -1.15018
C         59.90633        67.14646        -0.94697
C         58.56217        67.83682        -0.86671
C         59.78107        69.89536        -0.21012
C         58.54835        69.22441        -0.61028
C         59.64644        71.31918         0.27171
C         58.65404        72.14735        -0.52888
C         59.61052        74.11779         0.70586
C         58.51628        73.53526         0.07734
C         61.10525        59.20476        -1.18649
C         62.29288        61.32945        -0.77244
C         61.15751        60.60149        -1.19979
C         62.32041        62.73827        -0.65986
C         61.23355        63.57069        -1.31562
C         62.21910        65.60049        -0.20034
C         61.05897        64.94678        -0.71552
C         62.18527        66.97672         0.13198
C         60.85000        67.67763         0.12370
C         62.21299        69.84577         0.28551
C         60.92422        69.18435         0.02987
C         62.20670        71.36099         0.53667
C         60.93091        72.06131         0.51209
C         62.02103        74.03624         1.43261
C         60.86350        73.41294         0.89562
C         63.40766        63.41415        -0.10433
C         64.53347        65.48518         0.62432
C         63.41846        64.83438         0.07690
C         64.53458        66.88371         0.88172
C         63.32881        67.63726         0.62288
C         64.46802        69.72030         1.32151
C         63.34618        69.06125         0.80280
C         64.45091        71.14759         1.58709
C         63.32018        71.93574         1.28868
C         64.33505        73.89581         2.33184
C         63.21922        73.30693         1.69621
C         65.65472        67.55250         1.40922
C         66.74574        69.59534         2.25530
C         65.63933        68.94693         1.67301
C         66.72258        70.98108         2.56187
C         65.55985        71.75656         2.24551
C         66.63613        73.73572         3.22816
C         65.50596        73.14549         2.59414
C         67.82242        71.61816         3.18858
C         67.76904        72.97784         3.50833
O         46.41202        51.46805         2.35978
O         34.34370        63.93303        -1.70898
O         38.88729        59.97725         2.28044
O         62.59435        70.77712        -0.77344
O         54.33526        71.96378        -2.52473
O         48.53755        42.40178        -1.18836
O         50.31950        44.90674         2.57053
O         47.90692        66.27148         1.65917
O         37.21302        48.59842        -1.35505
O         32.99959        70.61701        -1.92916
O         39.83373        52.62353        -1.16639
O         45.32110        44.88668         2.60890
O         44.19864        38.36787         1.11337
O         54.09492        52.07928        -1.34726
O         45.32632        70.84661         2.05448
O         28.12568        66.03732         1.34238
O         57.00426        56.36742        -3.19777
O         59.87402        62.16357        -2.77829
O         39.46964        69.39648         2.36210
O         52.41435        52.67659         1.97794
O         51.45119        63.65053         1.38617
H         51.86638        62.79812         1.68607
O         36.21136        63.93801         1.72401
H         35.80006        63.16503         2.18701
O         39.04308        41.88012         3.00617
H         39.84308        42.34169         3.35972
O         54.35777        50.83933         2.14411
H         53.64453        51.41298         2.52053
O         50.81290        69.27399        -2.70423
H         51.67128        69.05445        -3.15114
O         32.10193        64.95401         1.10687
H         32.45941        65.85528         1.30246
O         55.84459        60.71014        -3.29500
H         56.47480        60.06299        -3.72235
O         38.53567        65.15846         1.99417
H         39.08183        64.58526         2.57026
O         42.96195        71.65321         2.63877
H         42.46210        71.00265         3.17386
O         32.96031        56.83216        -1.73330
H         32.95017        55.87897        -1.96656
O         55.52359        61.56296         0.28508
H         55.46704        60.66736         0.70706
O         46.06607        43.08234        -1.31112
H         46.93021        43.26047        -1.75152
O         44.40815        47.35469        -0.99013
H         43.54551        47.04110        -1.36520
O         46.13182        38.55494        -2.66868
H         46.24801        37.72923        -3.18648
O         38.97209        73.62195         2.82240
H         39.77880        73.13729         3.10224
O         43.52634        71.68600        -0.97720
H         44.07297        72.25185        -1.56176
O         52.91281        61.43080         1.22888
H         53.86572        61.68170         1.30684
O         54.55156        56.61236        -2.39774
H         55.37711        56.48987        -2.97445
O         38.26899        49.81880         1.91263
H         37.52090        49.44623         2.42485
O         41.51305        59.24157         2.78535
H         40.62523        59.58923         3.04936
O         52.12365        44.10216        -1.16101
H         51.19815        44.41837        -1.21232
O         34.66617        72.59466        -1.85473
H         34.46147        71.82332        -2.43264
O         41.37961        47.11687         2.55300
H         41.32376        46.41382         3.23385
O         42.65168        52.64135         2.56651
H         43.51727        52.96016         2.92196
O         38.37774        65.59981        -1.62641
H         37.73134        66.06545        -2.19730
O         45.47116        65.35767         2.29092
H         46.34899        65.75543         2.51435
O         60.48936        67.51161        -2.22739
H         59.99843        67.04787        -2.93710
O         52.51579        58.38925        -2.25795
H         53.29044        57.83051        -2.55350
O         54.13635        59.26529         0.97965
H         54.27790        58.33031         1.28430
O         33.19338        67.62517        -2.26725
H         32.45230        67.32172        -2.83115
O         45.24734        54.00870         2.61391
H         45.29769        54.89031         3.03972
O         59.03194        71.18423         1.60084
H         59.54068        70.51952         2.11111
O         60.23598        67.38469         1.42030
H         60.94359        67.35468         2.09762
O         54.45778        56.61998         1.30284
H         53.80412        56.19375         1.89980
O         57.27946        53.81904        -2.71688
H         57.17080        54.71987        -3.15721
O         39.20651        47.16667        -1.50617
H         38.46252        47.66727        -1.97289
O         58.70812        63.24709         0.48289
H         57.85106        63.52573         0.87043
O         56.95617        56.83233         0.40088
H         56.30481        56.63217         1.11385
O         26.32339        67.77417         1.77841
H         26.73700        66.97575         2.18616
O         41.47655        43.29542         3.11155
H         42.29578        42.81890         3.36738
O         51.23614        56.05507        -1.86261
H         51.48523        56.90631        -2.31210
O         50.82601        72.20798        -2.65496
H         50.69915        71.27144        -2.94933
O         41.50274        64.91383        -1.41950
H         42.37294        64.56324        -1.70638
O         46.09732        65.20136        -1.33901
H         46.79841        64.73448        -1.85408
O         61.74673        63.85396        -2.65285
H         61.37596        63.15196        -3.24181
O         52.25784        43.28365         2.40572
H         51.83366        43.94540         3.00347
O         41.79973        46.99663        -1.08177
H         40.90815        46.96742        -1.52797
O         59.18601        72.30328        -1.86595
H         58.55335        72.83971        -2.38741
O         48.54222        63.55423        -1.99560
H         48.61592        62.63663        -2.33742
O         33.75256        67.42373         1.31971
H         34.55764        67.53229         1.87058
O         54.49551        62.87627        -3.04003
H         55.05183        62.21919        -3.52789
O         35.00333        61.54132         2.18487
H         35.17591        60.69803         2.65529
O         57.51316        58.71897        -3.51889
H         57.33157        57.81390        -3.92865
O         31.29111        72.54591        -2.13611
H         31.64297        71.79906        -2.67395
O         45.44105        52.99806        -0.88515
H         45.27175        52.14480        -1.33661
O         53.56386        69.35815        -3.07331
H         53.78237        70.30031        -3.29801
O         38.87174        50.28626        -1.63864
H         39.29484        51.02916        -2.12464
O         52.46170        48.54634        -1.25285
H         52.58974        47.63513        -1.59309
H         22.90703        75.14933        -0.44072
H         25.38418        75.19969        -0.21809
H         27.84783        75.23678         0.05918
H         30.29988        75.20771         0.51381
H         32.71278        75.15659         0.79931
H         35.12669        75.23974         0.99175
H         37.58289        75.30887         1.12201
H         40.14327        75.30726         0.76237
H         42.56875        75.32226         0.50156
H         45.04368        75.33337         0.18548
H         47.48925        75.34894        -0.23901
H         49.98640        75.34007        -0.26006
H         52.40942        75.29620        -0.29196
H         54.85069        75.29076        -0.25661
H         57.19463        75.25289         0.26233
H         59.53740        75.15679         1.06258
H         61.97778        75.09934         1.71124
H         64.29431        74.95404         2.62901
H         66.60374        74.80127         3.49663
H         22.09288        69.23011        -0.65295
H         20.82591        71.36602        -0.69340
H         20.79518        73.85377        -0.65708
H         24.61722        65.03397        -0.75856
H         23.38572        67.12212        -0.79212
H         27.00431        60.76991        -0.54143
H         25.83327        62.88667        -0.73183
H         29.40333        56.39585         0.10518
H         28.19248        58.57839        -0.32437
H         31.93021        52.15047         0.48900
H         30.67161        54.26318         0.39636
H         34.51629        47.97880         1.24567
H         33.20142        50.02299         0.68552
H         36.90714        43.68693         1.17622
H         35.67762        45.75535         0.90745
H         39.32684        39.50254         0.61376
H         38.14078        41.58170         1.16760
H         41.69931        35.41547        -1.05157
H         40.50304        37.46611        -0.21582
H         45.03417        32.29422        -2.44925
H         42.92126        33.39533        -1.76741
H         47.19957        33.50515        -2.38721
H         48.50996        35.50138        -1.70333
H         49.78005        37.52519        -0.99555
H         51.00948        39.46917        -0.24448
H         52.30638        41.35626         0.59538
H         53.57592        43.68499         0.23916
H         54.82867        45.74607         0.17355
H         56.12643        47.88737         0.16104
H         57.27492        49.99487        -0.47021
H         58.54165        52.18669        -0.65202
H         59.69190        54.46932        -0.84104
H         60.87292        56.57081        -1.27564
H         62.01672        58.63418        -0.95061
H         63.17642        60.76166        -0.43893
H         64.27487        62.83707         0.25410
H         65.43688        64.90189         0.85736
H         66.56697        66.97948         1.63303
H         67.64248        69.00815         2.50404
H         68.72066        71.03077         3.42644
H         68.63248        73.45263         3.99543
