         404
 CSIRO Nanostructure Databank - Neutral Graphene Oxide Data Set
C          1.28842         3.71678         2.54985
C          0.12407         4.43928         2.73235
C          1.27140         6.53635         2.19845
C          0.11027         5.83427         2.55937
C          1.27549         7.97958         2.00114
C          0.10497         8.74649         2.16874
C          1.26559        10.80449         1.55809
C          0.09938        10.11691         1.95437
C          1.25511        12.23196         1.30353
C          0.08382        13.00762         1.44680
C          1.23505        15.04678         0.73886
C          0.07354        14.36493         1.16190
C          1.17598        16.45113         0.39340
C         -0.00923        17.15745         0.21534
C          1.14896        19.24159        -0.43001
C         -0.01838        18.52013        -0.14639
C          1.11904        20.61845        -0.88486
C         -0.05089        21.36165        -0.91821
C          1.10258        23.47334        -1.41103
C         -0.05542        22.75454        -1.15483
C          1.11754        24.91586        -1.50240
C         -0.01890        25.67387        -1.31299
C          1.12469        27.81061        -1.70836
C         -0.00270        27.09207        -1.39439
C          1.08973        29.29642        -1.69221
C         -0.02430        29.98208        -1.03017
C          1.22135        32.09873        -0.95170
C          0.01583        31.31773        -0.80545
C          1.18908        33.50261        -0.56194
C         -0.03328        34.17438        -0.33191
C          1.13044        36.19223         0.34289
C         -0.06807        35.48841         0.11326
C          1.12044        37.54777         0.86723
C          3.68856         3.65784         2.00325
C          2.49469         4.38129         2.18674
C          3.68801         6.48075         1.64919
C          2.48546         5.80719         2.01009
C          3.69180         7.90428         1.45226
C          2.47799         8.64643         1.62047
C          3.67497        10.72400         0.99230
C          2.47316        10.06073         1.39756
C          3.65929        12.13358         0.72431
C          2.45177        12.88294         0.88254
C          3.66250        14.91069         0.19543
C          2.45498        14.29095         0.62121
C          3.69767        16.37883         0.10118
C          2.43659        17.19244         0.21027
C          3.61498        19.22642        -0.63112
C          2.42061        18.57855        -0.32423
C          3.66935        20.60402        -1.04349
C          2.37132        21.24973        -1.34739
C          3.64154        23.47479        -1.63653
C          2.35841        22.74833        -1.65939
C          3.65744        24.86359        -1.75886
C          2.36225        25.57922        -1.95416
C          3.67357        27.82919        -2.19908
C          2.34936        27.09652        -2.13287
C          3.68564        29.34311        -2.04303
C          2.39027        30.09176        -1.83361
C          3.69474        32.14277        -1.08072
C          2.42297        31.46682        -1.28104
C          3.67998        33.54377        -0.65121
C          2.40694        34.21726        -0.41012
C          3.59239        36.34295         0.22256
C          2.35714        35.55869         0.04435
C          3.56211        37.58357         1.04322
C          2.26020        38.20561         1.20904
C          6.09637         3.58975         1.50131
C          4.89239         4.31135         1.65892
C          6.09952         6.40828         1.13788
C          4.88946         5.74150         1.47860
C          6.11113         7.82958         0.92995
C          4.89007         8.56842         1.07894
C          6.07046        10.62804         0.38567
C          4.87837         9.98042         0.83667
C          6.03565        12.02216         0.07414
C          4.83915        12.77838         0.26178
C          6.08671        14.82801        -0.43970
C          4.84408        14.17587        -0.03982
C          6.13582        16.24474        -0.54735
C          4.86055        16.98901        -0.59470
C          6.13888        19.17928        -0.83939
C          4.86166        18.45815        -0.81187
C          6.14257        20.55068        -1.01279
C          4.87893        21.26007        -1.22520
C          6.12861        23.45492        -1.41846
C          4.90957        22.66217        -1.81124
C          6.09961        24.84593        -1.51871
C          4.89520        25.57950        -1.73426
C          6.19438        27.79688        -1.53347
C          4.96008        27.05495        -1.96816
C          6.18398        29.23785        -1.34490
C          4.95831        30.02915        -1.64310
C          6.19127        32.12689        -1.06904
C          4.89308        31.44511        -1.18988
C          6.17574        33.59443        -0.62793
C          4.86545        34.20485        -0.37764
C          6.08944        36.13028         0.72645
C          4.89121        35.60891         0.06354
C          6.00016        37.33448         1.62997
C          4.70824        38.10658         1.55431
C          8.52782         3.53348         1.09670
C          7.30932         4.24803         1.20739
C          8.53483         6.35550         0.76582
C          7.30478         5.67469         1.01687
C          8.55755         7.77165         0.47340
C          7.31066         8.48105         0.55384
C          8.39854        10.47400        -0.39995
C          7.28212         9.88081         0.24086
C          8.17069        11.73314        -0.95668
C          7.17090        12.63503        -0.52565
C          8.52580        14.78904        -0.80360
C          7.27380        14.07939        -0.66892
C          8.54629        16.22091        -0.69321
C          7.33383        16.94895        -0.66376
C          8.67481        19.13601        -0.65929
C          7.36117        18.44137        -0.35780
C          8.64307        20.58582        -0.86629
C          7.40756        21.25884        -0.97999
C          8.68015        23.46186        -1.02968
C          7.35708        22.73213        -1.01286
C          8.67272        24.88222        -1.49797
C          7.37475        25.60503        -1.61687
C          8.62208        27.69786        -0.95205
C          7.36064        27.06664        -1.38889
C          8.59358        29.17769        -0.73247
C          7.34582        29.92656        -0.97304
C          8.59025        32.02253        -0.38032
C          7.41015        31.35084        -0.80901
C          8.56980        33.41401         0.03598
C          7.37320        34.14547         0.01794
C          8.51728        36.08496         1.05526
C          7.29835        35.44327         0.63129
C          8.46607        37.50359         1.36941
C          7.25727        38.14850         1.54186
C         10.97858         3.50077         0.74775
C          9.74844         4.20978         0.92189
C         10.98221         6.39880         0.88163
C          9.73389         5.63581         0.80187
C         11.01997         7.78575         0.36987
C          9.76668         8.41904         0.10157
C         11.03906        10.48114        -0.81040
C          9.66313         9.68739        -0.75191
C         11.08939        11.99309        -0.78658
C          9.99920        12.76129        -1.19938
C         10.97138        14.77918        -0.36023
C          9.80988        14.10928        -0.82070
C         10.80912        16.13619         0.03733
C          9.76144        16.94991        -0.37742
C         11.15697        19.18460        -0.42551
C          9.84212        18.41970        -0.43913
C         11.16190        20.49295        -1.23349
C          9.89395        21.29650        -1.00048
C         11.17235        23.40387        -1.29307
C          9.94299        22.68988        -1.12342
C         11.16572        24.86706        -1.49129
C          9.92873        25.63632        -1.30632
C         11.16882        27.72068        -0.94721
C          9.93037        27.00274        -1.14779
C         11.16631        29.19544        -0.83973
C          9.86897        29.94857        -0.82934
C         11.03636        31.95506         0.06776
C          9.84129        31.33355        -0.33426
C         10.98998        33.30944         0.54422
C          9.77165        34.02675         0.54914
C         10.96059        36.07505         1.39641
C          9.74078        35.40458         0.98920
C         10.93739        37.54922         1.43785
C          9.71830        38.20373         1.38681
C         13.36615         3.47278         0.17617
C         12.20574         4.15339         0.62584
C         13.54839         6.33693         0.72266
C         12.28251         5.60900         0.90254
C         13.52562         7.77781         0.58454
C         12.27666         8.41489         0.21673
C         13.56128        10.55898        -0.28597
C         12.31108         9.77940        -0.37496
C         13.53997        11.97481        -0.66854
C         12.27556        12.73176        -0.49818
C         13.51383        14.91889        -0.83579
C         12.25843        14.13589        -0.38928
C         13.69881        16.38688        -0.47350
C         12.73969        17.17237         0.08966
C         13.73788        19.23946        -0.78308
C         12.54771        18.59229        -0.20170
C         13.68385        20.65791        -0.96185
C         12.44056        21.31445        -1.05175
C         13.66843        23.47653        -1.08152
C         12.42187        22.73283        -1.18324
C         13.69313        24.88913        -1.01123
C         12.47138        25.64394        -1.29785
C         13.61369        27.74619        -0.56623
C         12.39298        27.06121        -0.91599
C         13.57073        29.13463        -0.21850
C         12.36053        29.87496        -0.30752
C         13.48042        31.88007         0.57412
C         12.29256        31.22971         0.08307
C         13.40517        33.22424         1.05957
C         12.18034        33.91772         1.07173
C         13.32023        35.84038         2.09711
C         12.10276        35.27252         1.57813
C         13.32613        38.06123         1.88393
C         12.12483        38.39316         1.30063
C         15.83375         3.48371        -0.22924
C         14.61440         4.11671         0.17195
C         15.98088         5.95416         0.94253
C         14.68429         5.48683         0.63030
C         15.98434         8.10510         1.01990
C         14.73232         8.58376         0.56798
C         16.04053        10.62916        -0.03652
C         14.77404         9.93946         0.06004
C         16.14049        11.93038        -0.80421
C         14.82228        12.70224        -0.85125
C         16.10699        14.91579        -0.74211
C         14.81563        14.17699        -0.57659
C         16.09554        16.35662        -1.06733
C         14.91912        17.05851        -0.91954
C         16.16151        19.22146        -1.13720
C         14.90900        18.51643        -0.99535
C         16.15735        20.65003        -1.03175
C         14.92630        21.36517        -1.01500
C         16.14601        23.49714        -0.87185
C         14.91427        22.78369        -0.99146
C         16.13538        24.91829        -0.72541
C         14.88753        25.61375        -0.76644
C         16.07330        27.75634        -0.35100
C         14.84915        27.03946        -0.56473
C         16.01723        29.11827         0.01135
C         14.77238        29.80792         0.17336
C         15.93502        31.80824         1.11899
C         14.70882        31.16465         0.59542
C         15.95269        33.26127         1.36052
C         14.61610        33.83417         1.74304
C         15.76846        36.19092         1.72743
C         14.56114        35.33914         1.81117
C         15.78919        37.69033         1.92196
C         14.66211        38.52182         1.71405
C         18.30291         3.53529        -0.64675
C         17.05561         4.16678        -0.24492
C         18.32137         6.34461         0.14844
C         17.13765         5.46895         0.35591
C         18.44994         7.75987         0.70583
C         17.22629         8.62249         0.65740
C         18.54865        10.63025         0.09613
C         17.26518         9.96526         0.19112
C         18.55089        12.13928         0.14936
C         17.34140        12.79076        -0.47258
C         18.64406        14.82648        -0.96806
C         17.35795        14.11600        -0.77246
C         18.64112        16.29328        -1.35526
C         17.32995        17.05318        -1.61935
C         18.61494        19.20660        -1.13645
C         17.37805        18.51756        -1.22893
C         18.62276        20.63729        -1.00116
C         17.38961        21.35973        -0.98176
C         18.61222        23.49551        -0.71685
C         17.38093        22.78429        -0.86439
C         18.59969        24.91723        -0.54522
C         17.35781        25.63188        -0.56108
C         18.57071        27.74158        -0.24143
C         17.34464        27.05824        -0.41618
C         18.59868        29.20473        -0.13404
C         17.25520        29.90456         0.05423
C         18.50200        31.96792         0.87824
C         17.26893        31.15937         0.84566
C         18.43610        33.32826         1.27103
C         17.12703        33.95917         1.49374
C         18.31439        36.16952         2.04158
C         17.08129        35.45728         1.59172
C         18.28977        37.64605         2.04987
C         17.04887        38.32082         1.96714
C         19.48021         4.20879        -0.64977
C         20.84377         6.36926        -0.34452
C         19.53873         5.67194        -0.44247
C         20.92837         7.66656        -0.00372
C         19.75874         8.45448         0.47925
C         20.97853        10.66267         0.26807
C         19.74564         9.94153         0.28950
C         21.03731        12.02607         0.01805
C         19.86967        12.79745        -0.18115
C         21.07186        14.94655        -0.57676
C         19.89505        14.17351        -0.51738
C         21.05380        16.32266        -0.82048
C         19.88486        17.05262        -1.09948
C         21.06539        19.23367        -1.02492
C         19.86259        18.48718        -1.10714
C         21.06384        20.61101        -0.93273
C         19.85345        21.34713        -0.88907
C         21.04737        23.51118        -0.53599
C         19.84677        22.78239        -0.71952
C         21.03502        24.87787        -0.33388
C         19.82470        25.61050        -0.32671
C         20.96753        27.75559         0.25734
C         19.80564        27.04104        -0.10793
C         20.95298        29.13226         0.52743
C         19.80088        29.89342         0.35218
C         20.92189        32.09258         0.71281
C         19.74351        31.32393         0.62143
C         20.86689        33.42890         1.08870
C         19.65016        34.06110         1.39409
C         20.83649        36.31601         1.81712
C         19.65281        35.45710         1.91264
C         20.74422        37.67134         2.01240
C         19.49932        38.33898         2.14126
O          2.29237        21.74082        -2.73785
O          2.18128        26.20087        -3.26901
O         16.45326        35.99450         0.38866
O         18.58642         6.39864        -1.30562
O          8.11573        25.14330        -2.83084
O          9.02447        12.15245        -1.98019
O         11.76353        16.62429         0.91858
O         17.93826        29.95995        -1.22670
O         11.83200        19.34942         0.84730
O          4.49170        27.41146        -3.31776
O          4.63077        17.47804        -1.96176
O          7.96399        23.31345         0.23180
O         11.65743         6.08707         2.15150
O         19.33909         7.99261         1.83730
O          4.52532        29.95373        -3.06208
O         11.85980         9.84833        -1.84356
O          1.48009        29.92110        -2.96130
O         11.94713        25.33983        -2.63781
O          3.36294        17.04708         1.36349
O         10.60749        29.80322        -2.08416
O          8.53322        28.27397         0.42456
O         16.62690        31.00746         2.15440
O         18.93245        35.56295         3.20860
O         13.22779        37.02003         2.82526
O          4.37708        36.52833        -1.00397
O         15.47656        14.61514         0.62622
O          6.38345        33.21704        -2.02875
O         18.80716        15.25466        -2.38586
O         16.03838         6.99501         1.86609
O         14.07533        12.33567        -2.06375
O          7.24222        18.50525         1.11689
H          8.10148        18.22049         1.49710
O         17.15869        17.08551        -3.06878
H         17.54945        16.24858        -3.41515
O         18.36348        12.42937         1.59787
H         19.04980        11.92609         2.08722
O          5.00567        22.44265        -3.27057
H          4.12591        22.09242        -3.55277
O          5.97748        36.75965         3.00934
H          6.88851        36.45224         3.20837
O         16.44879        11.50454        -2.17084
H         15.58239        11.42229        -2.63973
O         14.46299        33.39308         3.15391
H         15.32521        33.50986         3.60740
O          9.43018         9.19962        -2.09603
H         10.31786         9.08770        -2.51428
O         11.13499        20.07097        -2.63272
H         11.11275        20.87352        -3.19576
O         13.33977        14.96541        -2.28433
H         13.41719        14.03556        -2.61470
H          1.29682         2.62576         2.68418
H         -0.80477         3.92399         3.01419
H         -0.83765         6.36684         2.71233
H         -0.83395         8.26340         2.46950
H         -0.84384        10.66105         2.09377
H         -0.85159        12.54075         1.78184
H         -0.86721        14.91824         1.28596
H         -0.97853        16.65635         0.34418
H         -0.99717        19.00645        -0.25372
H         -1.00701        20.89382        -0.64808
H         -1.01429        23.27936        -1.05078
H         -0.96888        25.19485        -1.04332
H         -0.94136        27.61003        -1.16082
H         -0.91823        29.41960        -0.73206
H         -0.86758        31.79109        -0.35819
H         -0.98773        33.66236        -0.50883
H         -1.03299        35.98308         0.29339
H          0.14215        38.02419         1.02859
H          3.68686         2.56644         2.14151
H          2.21141        39.20728         1.66089
H          6.09257         2.49822         1.63862
H          4.66230        39.04480         2.12941
H          8.52180         2.43801         1.19588
H          7.23000        39.22655         1.75775
H         10.94090         2.40723         0.63238
H          9.69933        39.30345         1.39481
H         13.28492         2.42438        -0.14605
H         12.03097        39.30421         0.69107
H         15.79520         2.43894        -0.57061
H         14.84383        39.56729         1.41947
H         18.28404         2.46118        -0.88457
H         17.06909        39.42160         1.98087
H         20.42031         3.68121        -0.87052
H         21.74863         5.81019        -0.62771
H         21.91189         8.15971        -0.01362
H         21.91993        10.11830         0.42233
H         22.02590        12.49829        -0.07287
H         22.03690        14.48376        -0.32747
H         22.00880        16.85624        -0.72047
H         22.03340        18.71651        -1.04593
H         22.02974        21.12994        -0.88236
H         22.01537        22.99377        -0.53893
H         21.99285        25.39460        -0.18947
H         21.91651        27.22027         0.39027
H         21.87854        29.60676         0.88204
H         21.89660        31.63565         0.49565
H         21.80875        33.98675         1.17151
H         21.81088        35.87694         1.56383
H         21.66019        38.27874         1.98246
H         19.48518        39.43608         2.20826
