         404
 CSIRO Nanostructure Databank - Neutral Graphene Oxide Data Set
C          1.52476         2.35520        -2.78157
C          1.44671         3.71600        -2.46880
C          2.74507         1.69182        -2.76314
C          2.60535         4.46020        -2.15106
C          1.30871         6.54668        -1.66263
C          1.25530         7.86512        -1.26224
C          2.54231         5.85689        -1.76771
C          2.43143         8.59176        -0.92922
C          1.11178        10.66383        -0.41104
C          1.05274        12.01018        -0.19419
C          2.37173         9.95820        -0.46309
C          2.22969        12.77965         0.10071
C          1.05634        14.92675        -0.33137
C          1.01058        16.27302        -0.30349
C          2.23822        14.16509         0.05482
C          2.17482        17.10240         0.15243
C          2.33827        18.36499        -0.67525
C          3.93832         2.39448        -2.45095
C          3.86887         3.80176        -2.17339
C          5.17602         1.71577        -2.37539
C          5.07161         4.53290        -1.91884
C          3.74203         6.56855        -1.47449
C          3.68723         7.94301        -1.04895
C          4.99985         5.91683        -1.62141
C          4.88495         8.65148        -0.68470
C          3.54171        10.62834        -0.08084
C          3.42337        11.98849         0.58702
C          4.80853         9.98062        -0.16596
C          4.72433        12.75343         0.61051
C          3.46277        14.91542         0.30050
C          3.45041        16.28913         0.20678
C          4.70875        14.19290         0.60660
C          4.69704        17.06464         0.31078
C          3.50011        19.03488        -0.74541
C          4.73590        18.50610        -0.12230
C          6.37001         2.39165        -2.04126
C          6.32643         3.82504        -1.86220
C          7.58748         1.68454        -1.87759
C          7.51804         4.49797        -1.53848
C          6.22517         6.71572        -1.47197
C          6.15644         8.04096        -0.82866
C          7.55897         5.97291        -1.45384
C          7.32438         8.67559        -0.34426
C          6.00684        10.65507         0.24744
C          5.92261        12.03464         0.66223
C          7.26363         9.99472         0.21544
C          7.16245        12.69505         1.08097
C          5.90140        14.90115         0.72266
C          5.97978        16.30955         0.28354
C          7.13860        14.23149         1.09359
C          7.28366        17.06711         0.28328
C          6.04454        19.09749        -0.45748
C          7.25464        18.53319        -0.12928
C          8.78251         2.34228        -1.51129
C          8.71325         3.77192        -1.33360
C         10.00512         1.65254        -1.25373
C          9.89985         4.48533        -1.00221
C          8.67357         6.61262        -0.72920
C          8.56257         7.94117        -0.24845
C          9.84014         5.84568        -0.50362
C          9.61609         8.48463         0.55900
C          8.48924        10.65062         0.65934
C          8.46771        12.02455         0.97248
C          9.70478         9.90735         0.85339
C          9.67248        12.75920         1.20674
C          8.43016        14.92853         0.99865
C          8.44000        16.33228         0.87149
C          9.62867        14.18739         1.22469
C          9.66226        17.01871         1.11111
C          8.45796        19.21081        -0.58953
C          9.69115        18.99132         0.00855
C         11.20553         2.35747        -0.97957
C         11.10369         3.78085        -1.06394
C         12.44072         1.75254        -0.58854
C         12.62443         4.62430         0.15853
C         10.77061         6.29853         0.48544
C         10.51582         7.55254         1.09191
C         11.90022         5.52882         0.93339
C         12.32680         8.56665         1.87538
C         10.93393        10.57435         1.17603
C         10.94574        12.03735         1.22845
C         12.19929         9.87861         1.40784
C         12.15603        12.75394         1.31795
C         10.86979        14.95325         1.43115
C         10.89298        16.40228         1.13267
C         12.17330        14.20231         1.58189
C         12.10148        17.08517         0.59110
C         11.01730        19.23284        -0.40259
C         12.15099        18.51327         0.09871
C         13.56441         2.35158         0.07088
C         13.58948         3.69103         0.60713
C         14.68587         1.52131         0.35585
C         14.65385         4.12581         1.60935
C         13.61727         6.40992         2.03091
C         13.55428         7.82834         1.89888
C         14.75195         5.65511         1.73126
C         14.78463         8.52392         1.71379
C         13.48291        10.57034         1.15807
C         13.45730        12.09767         1.10503
C         14.76865         9.92646         1.51385
C         14.73251        12.78228         1.39794
C         13.44587        15.00267         1.41877
C         13.40726        16.33257         0.70141
C         14.73779        14.26978         1.41896
C         14.68935        17.06164         0.53004
C         13.40545        19.06658        -0.15552
C         14.66186        18.42022         0.09206
C         15.92004         2.10545         0.76228
C         15.94757         3.48893         1.14957
C         17.13469         1.40123         0.63810
C         17.15485         4.20288         1.06556
C         15.98545         6.35811         1.50918
C         16.01360         7.80818         1.65185
C         17.14774         5.63698         1.16338
C         17.22297         8.55042         1.71046
C         15.97740        10.65256         1.58032
C         15.92512        12.09816         1.48594
C         17.22367         9.97161         1.81094
C         17.18883        12.85918         1.67395
C         15.96594        14.90527         0.79861
C         15.92429        16.41374         0.71429
C         17.19377        14.33360         1.47524
C         17.13172        17.10204         0.49783
C         15.87426        19.08276        -0.18397
C         17.12417        18.44208         0.00047
C         18.38329         2.07371         0.71453
C         18.38887         3.50534         0.82538
C         19.61028         1.37532         0.62856
C         19.63429         4.20285         0.74641
C         18.39397         6.34510         0.88478
C         18.45323         7.81414         1.34384
C         19.66665         5.62483         0.82384
C         19.75626         8.17730         1.84233
C         18.46945        10.75881         1.88410
C         18.48100        12.14355         1.62077
C         19.73528        10.20258         2.21408
C         19.71176        12.82923         1.40463
C         18.49842        15.04431         1.29613
C         18.43725        16.47227         0.79144
C         19.73246        14.26114         1.12208
C         19.65466        17.04498         0.21577
C         18.35430        19.06602        -0.35423
C         19.60110        18.38675        -0.29745
C         20.85164         2.05659         0.59351
C         20.85710         3.49648         0.60015
C         22.08248         1.35991         0.56491
C         22.08754         4.21487         0.45083
C         20.88715         6.33932         0.81132
C         20.94095         7.68791         1.32324
C         22.11675         5.65084         0.57735
C         22.22290         8.39305         1.59658
C         20.98356        10.75290         1.84565
C         20.93723        12.10468         1.42726
C         22.24507         9.91713         1.89809
C         22.19889        12.85404         1.25372
C         20.89206        14.93587         0.72856
C         20.85998        16.32529         0.28698
C         22.15206        14.23013         0.68387
C         22.07313        16.97581        -0.10091
C         20.80892        19.01231        -0.67696
C         22.05116        18.34354        -0.54944
C         23.31023         2.05346         0.43901
C         23.28483         3.48036         0.30363
C         24.55587         1.37676         0.38599
C         24.50616         4.17821        -0.07151
C         23.33583         6.39606         0.57677
C         23.43692         7.73882         1.02141
C         24.52757         5.73307         0.04214
C         24.65729         8.46565         0.84534
C         23.62037        10.63487         1.78982
C         23.49903        12.10986         1.35308
C         24.71345         9.87801         1.03847
C         24.68036        12.73047         0.72778
C         23.31988        14.88149         0.35184
C         23.31625        16.28909         0.00158
C         24.58928        14.10433         0.11288
C         24.51952        16.99684        -0.20325
C         23.27253        18.99894        -0.84404
C         24.51469        18.36069        -0.63624
C         25.78364         2.06792         0.21246
C         25.78742         3.48043         0.00142
C         27.02145         1.36688         0.16860
C         26.99438         4.19123        -0.17901
C         25.83183         6.38775         0.13696
C         25.85933         7.77578         0.41143
C         27.01322         5.65823        -0.17116
C         27.09500         8.47829         0.26921
C         25.89499        10.58756         0.73819
C         25.87237        12.04085         0.62444
C         27.10798         9.90177         0.39816
C         27.10141        12.75968         0.31227
C         25.83656        14.89464         0.42063
C         25.80626        16.37673         0.14820
C         27.10815        14.17476         0.26050
C         27.06337        17.04096        -0.20713
C         25.75581        19.04169        -0.82294
C         27.01001        18.41366        -0.63733
C         28.21712         2.03579        -0.07845
C         28.20174         3.44584        -0.22557
C         29.46949         1.20982        -0.33982
C         29.44885         4.13885        -0.58701
C         28.22713         6.37375        -0.31556
C         28.28577         7.77559        -0.09620
C         29.44221         5.64214        -0.72228
C         29.54093         8.50035        -0.19140
C         28.32370        10.62000         0.20453
C         28.32382        12.05467         0.20972
C         29.55164         9.92413        -0.01097
C         29.54898        12.78078         0.10112
C         28.29972        14.90957         0.08863
C         28.27692        16.34268        -0.13189
C         29.53602        14.20526         0.03702
C         29.51227        17.03651        -0.38025
C         28.23134        19.09710        -0.85495
C         29.47686        18.44713        -0.70524
C         30.77876         1.96968        -0.23399
C         30.72258         3.44752        -0.20439
C         31.98441         1.33736        -0.17266
C         32.01038         4.20222        -0.20370
C         30.74883         6.39198        -0.76663
C         30.75860         7.83397        -0.45202
C         32.03977         5.63197        -0.62672
C         32.01189         8.51205        -0.40137
C         30.78204        10.64614        -0.06125
C         30.78781        12.07516         0.04189
C         32.02631         9.94858        -0.20712
C         32.01096        12.81071         0.05357
C         30.76177        14.92966        -0.08178
C         30.74225        16.35601        -0.30565
C         31.98127        14.22952         0.01583
C         31.97714        17.07134        -0.52236
C         30.69195        19.14493        -0.89274
C         31.94263        18.49394        -0.79187
C         33.26366         2.04184        -0.14236
C         33.28422         3.46149        -0.21262
C         34.48362         1.35275        -0.07772
C         34.49462         4.18639        -0.20793
C         33.28701         6.36825        -0.36703
C         33.23728         7.78051        -0.43383
C         34.48883         5.63397        -0.24323
C         34.51810         8.48995        -0.41439
C         33.23458        10.66939        -0.10779
C         33.26476        12.09348         0.02494
C         34.53349         9.99046        -0.24904
C         34.49626        12.78132        -0.07991
C         33.23338        15.00218        -0.01182
C         33.20720        16.41018        -0.45151
C         34.52668        14.25383        -0.09158
C         34.44787        17.10155        -0.65158
C         33.15961        19.19514        -0.91839
C         34.40977        18.53559        -0.84170
C         35.72474         2.04729        -0.05594
C         35.73076         3.47896        -0.11056
C         36.96600         1.35844         0.02618
C         36.97483         4.18562        -0.07308
C         35.73879         6.33948        -0.15286
C         35.73095         7.72560        -0.14195
C         36.99512         5.60994        -0.10985
C         36.99782         8.45535         0.01004
C         35.71708        10.67881         0.44169
C         35.76553        12.11802        -0.01865
C         37.03535         9.91908         0.27410
C         36.95869        12.80758        -0.12492
C         35.65178        14.90960        -0.86469
C         35.68438        16.41581        -0.67856
C         36.98324        14.20106        -0.63433
C         36.90959        17.13236        -0.77940
C         35.62457        19.23547        -0.99015
C         36.86664        18.56970        -0.94230
C         38.19135         2.04404         0.03662
C         38.20705         3.47890        -0.02792
C         39.44715         1.35349         0.11796
C         39.44794         4.18701        -0.03495
C         38.22639         6.29049        -0.20803
C         38.22135         7.74381        -0.44781
C         39.46658         5.61291        -0.15313
C         39.50725         8.51052        -0.46906
C         38.29585        10.65075        -0.04691
C         38.25278        12.12864         0.12549
C         39.46021         9.99544        -0.29141
C         39.55548        12.89112         0.06250
C         38.24515        15.00434        -0.59520
C         38.17719        16.48284        -0.72862
C         39.51570        14.39499        -0.08679
C         39.38048        17.20150        -0.89385
C         38.07876        19.27639        -1.13048
C         39.31600        18.62200        -1.13811
C         40.63776         2.04028         0.13874
C         40.67358         3.46650         0.06293
C         41.89480         4.19733         0.08679
C         40.71667         6.34560        -0.11485
C         40.74503         7.76875        -0.16697
C         41.91514         5.57500         0.01812
C         41.88759         8.57228         0.17650
C         40.76671        10.69195        -0.61143
C         40.78293        12.18255        -0.32814
C         41.90599         9.93083         0.04115
C         41.91490        12.93132        -0.68610
C         40.78408        15.14216        -0.40201
C         40.67404        16.55727        -0.87050
C         41.96637        14.32003        -0.68572
C         41.80707        17.29964        -1.14832
C         40.52465        19.34313        -1.40116
C         41.73113        18.69018        -1.43046
O         11.44994        14.63260         2.77357
O         22.32495         8.92315         2.95514
O         18.62081        16.15918         2.23395
O         19.74680         9.01844         2.96082
O         34.13238        14.84643         1.17548
O          6.78292        16.37083        -0.95135
O         13.52701        11.28490        -0.12204
O         38.95027        12.51392         1.36724
O         25.78330        15.80768         1.53487
O         12.62183        16.21692        -0.53373
O         12.26988         4.52608        -1.21036
O          7.10662         6.66717        -2.65556
O         38.81129         8.12615        -1.73263
O         29.32386         4.76786        -1.90132
O         17.05084        13.80938         2.81481
O         11.17057         7.89272         2.28577
O          9.60160        18.39082         1.27842
O         12.37947         5.75077         2.23131
O         40.21098        15.06430         0.98636
O          7.02387        13.44754         2.32864
O         18.38303         7.45722        -0.07629
O         31.25108         4.01697         1.05881
O         37.21781         8.97688         1.39695
O         14.27485        14.95726         2.62070
O         34.76851         9.43836        -1.56910
O         23.00101        12.89169         2.51234
O         31.51997         5.98449        -1.94873
O         37.83934        14.30990        -1.84607
O         24.33380         5.05435        -1.23513
O          4.62489        18.14429         1.31850
O         24.16089        10.68740         3.13162
H         23.67175        11.39468         3.61092
O         14.30469         3.57306         2.91372
H         15.02694         3.79287         3.53800
O          1.90194        17.53970         1.52032
H          2.73893        17.95367         1.84431
O         35.38769        10.71483         1.84928
H         35.97388        10.06615         2.30533
O         40.95068        10.57107        -2.06360
H         40.65283         9.67478        -2.33262
O         16.06160        14.44571        -0.58340
H         15.31437        14.82663        -1.09287
O         24.64587        13.90508        -1.34699
H         23.85323        13.39683        -1.61945
O          3.13106        11.69838         2.00447
H          3.94537        11.32607         2.40499
O         35.29657        14.69098        -2.25979
H         36.13929        14.71573        -2.77076
O         29.35674         0.64780        -1.66363
H         29.25620         1.38438        -2.30195
H          0.60609         1.80472        -3.02773
H          0.46076         4.19903        -2.47237
H          2.79708         0.61666        -2.98614
H          0.36773         6.02991        -1.89258
H          0.27104         8.34439        -1.18720
H          0.18014        10.12944        -0.63598
H          0.07882        12.51107        -0.27885
H          0.16026        14.37819        -0.65317
H          0.08452        16.79804        -0.58285
H          1.43911        18.78030        -1.15621
H          5.20245         0.62988        -2.55023
H          3.57471        19.97098        -1.32046
H          7.59147         0.59445        -2.02384
H          6.03711        20.08376        -0.94656
H         10.00787         0.55289        -1.25885
H          8.36924        19.88416        -1.45509
H         12.49418         0.65628        -0.69512
H         11.21051        19.99844        -1.16977
H         14.67095         0.46607         0.04438
H         13.44195        20.08210        -0.57847
H         17.11646         0.32459         0.41119
H         15.84811        20.10917        -0.57831
H         19.60008         0.27634         0.58285
H         18.33376        20.10185        -0.72409
H         22.08490         0.26127         0.61249
H         20.79101        20.05235        -1.03397
H         24.57252         0.28133         0.48135
H         23.25153        20.04257        -1.19021
H         27.02031         0.27242         0.27668
H         25.73340        20.09577        -1.13756
H         29.49211         0.33996         0.36602
H         28.21042        20.15739        -1.14805
H         32.01401         0.23666        -0.17325
H         30.66301        20.22146        -1.11850
H         34.48543         0.25352        -0.03142
H         33.13860        20.28354        -1.07831
H         36.96365         0.25926         0.07773
H         35.60481        20.32170        -1.16384
H         39.44311         0.25499         0.17130
H         38.04251        20.36322        -1.29836
H         41.58823         1.49130         0.21036
H         42.84182         3.64359         0.16655
H         42.88400         6.09322         0.04008
H         42.77881         8.07295         0.58574
H         42.80424        10.48984         0.34209
H         42.81149        12.38296        -1.01129
H         42.88143        14.80985        -1.04669
H         42.79760        16.82476        -1.12631
H         40.46701        20.42471        -1.58959
H         42.65696        19.24275        -1.64187
