         732
 CSIRO Nanostructure Databank - Neutral Graphene Oxide Data Set
C         22.85528        24.64186        -0.56032
C         21.67797        25.37086        -0.61281
C         22.87291        27.48723        -1.08084
C         21.65328        26.76643        -0.71735
C         22.94836        28.97042        -1.07296
C         21.77138        29.72426        -1.22899
C         23.01940        31.80974        -1.07896
C         21.80695        31.10971        -1.25801
C         23.05888        33.26256        -1.10730
C         21.91444        34.02152        -1.47186
C         23.09860        36.12528        -1.12755
C         21.93560        35.40240        -1.48576
C         23.11087        37.57134        -1.06180
C         21.95602        38.33826        -1.36340
C         23.12463        40.42635        -0.87835
C         21.96657        39.71673        -1.27863
C         23.13101        41.86932        -0.76196
C         21.98992        42.63630        -1.12096
C         23.07996        44.70684        -0.44792
C         21.96575        44.00587        -0.97514
C         23.04229        46.13690        -0.21858
C         21.89185        46.89369        -0.54314
C         22.96211        48.92546         0.20314
C         21.85177        48.26389        -0.32761
C         25.45917        23.14806        -0.57169
C         25.43503        24.55963        -0.59723
C         24.15959        25.34641        -0.32050
C         25.41749        27.50023        -0.81668
C         24.17135        26.72585        -0.96017
C         25.43194        28.89016        -0.78406
C         24.18571        29.63846        -0.90390
C         25.44034        31.76192        -0.56185
C         24.21457        31.06563        -0.86341
C         25.43908        33.18275        -0.46260
C         24.25230        33.94459        -0.77722
C         25.44900        36.09136        -0.41887
C         24.27382        35.38883        -0.77993
C         25.49240        37.52195        -0.39459
C         24.29182        38.26189        -0.67593
C         25.48955        40.37719        -0.15555
C         24.30456        39.68873        -0.57427
C         25.48021        41.79093         0.03194
C         24.27923        42.54162        -0.27482
C         25.36695        44.64744         0.45237
C         24.24616        43.96598        -0.11485
C         25.35178        46.03002         0.67849
C         24.17485        46.79909         0.34363
C         25.30308        48.90062         1.06379
C         24.12479        48.21705         0.53912
C         25.47481        50.30287         0.99657
C         27.90228        23.12837        -0.63335
C         26.65550        22.45454        -0.64266
C         27.90124        24.55808        -0.62645
C         26.65131        25.25258        -0.68870
C         27.96296        27.47160        -0.72529
C         26.65471        26.71810        -0.89417
C         27.88755        28.90397        -0.39706
C         26.67083        29.60321        -0.52969
C         27.83844        31.71649         0.04250
C         26.64713        31.03030        -0.33470
C         27.79723        33.13079         0.22846
C         26.62074        33.85005        -0.03889
C         27.86971        36.06174         0.35127
C         26.58408        35.32117         0.12646
C         27.97771        37.46236        -0.20922
C         26.69221        38.22992        -0.11777
C         27.89968        40.34533         0.40064
C         26.70972        39.64820         0.04260
C         27.86381        41.73210         0.73672
C         26.62543        42.43730         0.55636
C         27.72994        44.59422         1.45242
C         26.49543        43.85169         0.95825
C         27.79094        46.06489         1.37815
C         26.51849        46.70668         1.22587
C         28.17527        49.04916         1.32912
C         26.35532        48.07581         1.52193
C         27.96818        50.34459         0.79324
C         26.71019        50.96179         0.85408
C         30.37620        20.29478        -0.64725
C         29.19552        20.98767        -0.73783
C         30.37120        23.09946        -0.36663
C         29.14974        22.40464        -0.58716
C         30.35643        24.53126        -0.25130
C         29.13669        25.26711        -0.43419
C         30.29562        27.39907         0.04439
C         29.15468        26.69545        -0.35135
C         30.31037        28.83011         0.11179
C         29.09318        29.56901        -0.03352
C         30.31452        31.65412         0.34087
C         29.08300        30.98727         0.16390
C         30.34009        33.08429         0.67042
C         29.01931        33.84657         0.66259
C         30.32750        35.96911         0.51656
C         29.12207        35.29933         0.47143
C         30.34032        37.43159         0.52818
C         29.19264        38.15703         0.32597
C         30.32216        40.19531         1.14632
C         29.23597        39.65731         0.24000
C         30.25144        41.62279         1.60249
C         29.02186        42.39849         1.28013
C         30.33186        44.61749         1.67378
C         28.98074        43.80000         1.63386
C         30.30947        45.99082         1.18475
C         29.06256        46.73295         1.23475
C         30.24821        48.64498         0.02977
C         29.15847        48.13133         0.94298
C         30.41861        50.16844         0.19686
C         29.10976        50.97997         0.02014
C         30.61269        52.90629         0.22747
C         29.41906        52.37409         0.51234
C         32.89662        18.81970        -0.47299
C         32.81403        20.21667        -0.20578
C         31.61472        20.94609        -0.34792
C         32.82019        23.09833        -0.00612
C         31.60314        22.38698        -0.21203
C         32.80504        24.52382         0.10802
C         31.56247        25.20737         0.05354
C         32.82429        27.40296         0.46793
C         31.50501        26.63750         0.37629
C         32.79741        28.85005         0.24776
C         31.55440        29.53270         0.22383
C         32.78474        31.67914         0.15849
C         31.55305        30.96457         0.23643
C         32.78051        33.12683         0.19612
C         31.58450        33.83713         0.46007
C         32.81289        35.96010         0.38586
C         31.58517        35.24827         0.49267
C         32.83205        37.39325         0.59481
C         31.61465        38.10817         0.73185
C         32.84741        40.16415         1.16432
C         31.62874        39.49305         1.00246
C         32.86325        41.59343         1.55714
C         31.57008        42.33007         1.85321
C         32.88189        44.51125         1.36891
C         31.61349        43.83806         1.75310
C         32.80570        45.85626         0.71269
C         31.53003        46.63275         0.74855
C         32.81346        48.70100         0.07551
C         31.57352        47.95178         0.28635
C         32.83013        50.04665        -0.25796
C         31.54671        50.69715        -0.72709
C         32.88428        52.92923        -0.76934
C         31.52379        52.26663        -0.80490
C         32.88804        54.32264        -0.94844
C         35.34227        18.81096        -0.23628
C         34.08544        18.13192        -0.45322
C         35.32434        20.17106         0.00643
C         34.04109        20.89731         0.34761
C         35.26476        23.10414         0.18407
C         34.07296        22.39631         0.10350
C         35.29207        24.54539         0.18142
C         34.04810        25.25217         0.20928
C         35.27813        27.39539         0.11550
C         34.07066        26.66701         0.24496
C         35.27035        28.83028         0.03487
C         34.01985        29.53934         0.09600
C         35.23688        31.65282        -0.21534
C         34.01011        30.96697         0.01831
C         35.16667        33.10046        -0.45082
C         33.97123        33.85083        -0.04051
C         35.27331        35.98377        -0.01145
C         34.01194        35.25937         0.09835
C         35.31137        37.39292         0.36318
C         34.06648        38.08319         0.68160
C         35.32396        40.19517         1.08997
C         34.07286        39.47196         0.98727
C         35.34613        41.57162         1.17275
C         34.11431        42.34660         1.26574
C         35.38747        44.50134         1.32761
C         34.11758        43.71277         1.16723
C         35.39590        45.89150         0.71711
C         34.10201        46.56136         0.44363
C         35.29101        48.71465         0.28677
C         34.11080        48.03044         0.27384
C         35.28319        50.21949         0.28272
C         34.13745        50.73635        -0.58296
C         35.30686        52.97547        -0.42330
C         34.08861        52.25118        -0.54044
C         35.28217        54.38066        -0.58928
C         34.07383        55.03645        -0.87547
C         37.94468        16.02524        -0.29433
C         36.68791        16.70433        -0.32481
C         37.85189        18.84361        -0.31835
C         36.61237        18.08329        -0.31036
C         37.84279        20.19130        -0.10404
C         36.58840        20.89189         0.23330
C         37.79683        23.15754         0.11171
C         36.55781        22.39002         0.31817
C         37.78354        24.54154         0.17823
C         36.51685        25.26191         0.20375
C         37.73628        27.43161         0.07064
C         36.52316        26.69046         0.12808
C         37.73623        28.82711        -0.11352
C         36.48761        29.54021        -0.13434
C         37.71610        31.70306        -0.42155
C         36.47019        30.97265        -0.28581
C         37.72365        33.10566        -0.45403
C         36.46743        33.86102        -0.56851
C         37.72862        36.01052        -0.42418
C         36.45163        35.30574        -0.28411
C         37.76011        37.48745        -0.06014
C         36.51444        38.06751         0.45612
C         37.80189        40.18362         0.54622
C         36.61567        39.40744         1.14770
C         37.84357        41.59771         1.04296
C         36.62180        42.29448         1.13676
C         37.84026        44.35647         0.62855
C         36.61626        43.69230         1.07951
C         37.82600        45.83744         0.35285
C         36.56177        46.57437         0.55528
C         37.80852        48.71949        -0.00038
C         36.60630        48.07504         0.65067
C         37.82892        50.13065        -0.16037
C         36.60006        50.86814        -0.09227
C         37.82531        52.95908        -0.28806
C         36.58810        52.26655        -0.25231
C         37.84463        54.42593        -0.23785
C         36.51829        55.18020        -0.41237
C         37.80868        57.16829        -1.08065
C         36.61600        56.53540        -0.96977
C         40.49483        14.60569        -0.56735
C         40.42157        15.97830        -0.33969
C         39.14586        16.68019        -0.40663
C         40.36859        18.86277        -0.07360
C         39.16013        18.16583        -0.68148
C         40.36955        20.25276         0.05702
C         39.10181        20.96484        -0.21999
C         40.31974        23.16056         0.23122
C         39.07151        22.45181        -0.10181
C         40.25320        24.58938         0.30129
C         39.02870        25.25745         0.21346
C         40.23440        27.35275        -0.31222
C         39.03694        26.75252         0.41269
C         40.23172        28.86234        -0.27569
C         38.98628        29.54920        -0.26310
C         40.18788        31.65132        -0.65780
C         38.97809        30.97160        -0.42604
C         40.15890        33.10969        -0.87050
C         38.94941        33.85326        -0.46987
C         40.24577        35.96333        -0.34967
C         38.98790        35.24081        -0.43204
C         40.26592        37.27139         0.15805
C         39.07258        38.07780         0.32600
C         40.32253        40.07611         1.27555
C         39.09340        39.40333         0.68913
C         40.36387        41.56154         0.99419
C         39.12469        42.32132         1.38359
C         40.30204        44.40758         0.57244
C         39.12994        43.72020         0.83037
C         40.30694        45.84028         0.29529
C         39.10894        46.54252         0.28754
C         40.36374        48.63567        -0.45049
C         39.04407        47.94323        -0.16184
C         40.36545        50.13800        -0.71544
C         39.06164        50.83577        -0.35661
C         40.31854        52.97163        -0.31364
C         39.06720        52.25072        -0.33914
C         40.33812        54.41079        -0.39922
C         39.09152        55.14410        -0.51058
C         40.30656        57.23294        -0.93828
C         39.06919        56.51682        -0.79407
C         40.39175        58.47688        -1.56188
C         42.88728        14.59931        -0.19110
C         41.72624        13.92212        -0.48921
C         42.88173        16.00789         0.05892
C         41.61848        16.71220        -0.00862
C         42.70945        18.84875         0.69917
C         41.54418        18.11159         0.20478
C         42.74625        20.31894         0.63531
C         41.55522        21.01056         0.38358
C         42.68800        23.21276         0.86167
C         41.51196        22.46904         0.45767
C         42.68204        24.61023         0.83233
C         41.49226        25.33379         0.45385
C         42.72621        27.46341         0.25173
C         41.50696        26.70773         0.20643
C         42.71498        28.84842        -0.22193
C         41.44761        29.53947        -0.42984
C         42.65731        31.64165        -0.94183
C         41.45297        30.96959        -0.67318
C         42.69825        33.08620        -1.44235
C         41.41854        33.87512        -1.15040
C         42.72129        35.92604        -0.56338
C         41.48876        35.28210        -0.66720
C         42.79320        37.30198        -0.12516
C         41.56921        37.89847         0.44736
C         42.81578        40.11424         0.56548
C         41.61190        39.34102         0.90791
C         42.78631        41.52110         0.55799
C         41.53150        42.24096         0.72301
C         42.75378        44.40236         0.52619
C         41.55168        43.69346         0.60134
C         42.79743        45.84613         0.46073
C         41.57869        46.54756         0.22178
C         42.81109        48.66950         0.14305
C         41.60437        47.94650        -0.01266
C         42.79235        50.12241         0.04881
C         41.59446        50.83298        -0.18201
C         42.78089        52.96289         0.03112
C         41.56508        52.25663        -0.15314
C         42.76003        54.45444         0.22808
C         41.53132        55.12406        -0.31685
C         42.83201        57.21136        -0.80345
C         41.53058        56.63358        -0.29489
C         42.82927        58.44297        -1.45293
C         41.63035        59.09174        -1.78665
C         45.39420        16.09100         0.25943
C         44.08763        16.70690         0.30775
C         45.30417        18.91593         0.56701
C         44.03869        18.09950         0.75015
C         45.20000        20.34950         1.04448
C         43.97781        21.00579         0.95142
C         45.21906        23.21011         1.41771
C         43.89667        22.45298         1.25815
C         45.22663        24.70137         1.33198
C         43.88880        25.42375         1.11046
C         45.15708        27.58346         0.77300
C         43.89842        26.83214         0.66329
C         45.15780        28.94830         0.07539
C         43.90428        29.50708        -0.46527
C         45.18162        31.58604        -1.28583
C         43.86852        30.78276        -1.28683
C         45.20194        33.08534        -1.14567
C         43.94237        33.82055        -0.99183
C         45.22471        35.90036        -0.64301
C         43.97435        35.19363        -0.75928
C         45.22664        37.41222        -0.69716
C         43.98064        38.01416        -0.09593
C         45.24081        40.12741         0.25013
C         44.01681        39.41377         0.24981
C         45.23723        41.52763         0.46643
C         44.00244        42.25197         0.50126
C         45.17912        44.38147         0.90329
C         43.99296        43.68410         0.59523
C         45.27642        45.84147         0.87193
C         44.03883        46.54927         0.58264
C         45.26178        48.70764         0.54956
C         44.03093        47.97667         0.44166
C         45.25222        50.13444         0.41478
C         44.01696        50.83906         0.21811
C         45.24736        52.99931         0.21060
C         44.00509        52.26784         0.16011
C         45.25669        54.42431         0.00976
C         44.04650        55.14160        -0.14695
C         45.31584        57.16421        -0.65334
C         44.05783        56.50347        -0.52053
C         46.50885        16.71346         0.73037
C         47.69592        18.91086         1.54944
C         46.45996        18.13272         1.16421
C         47.68597        20.37287         1.30248
C         46.45674        21.06636         1.21061
C         47.68722        23.20070         0.97688
C         46.48211        22.49350         1.17627
C         47.68766        24.65829         0.85118
C         46.49777        25.36999         0.98711
C         47.77077        27.53764         0.62014
C         46.46837        26.84606         0.97808
C         47.72872        28.87104        -0.00485
C         46.45710        29.45162        -0.45232
C         47.71382        31.60569        -0.92591
C         46.46592        30.84274        -1.05969
C         47.65389        33.05349        -0.87137
C         46.47568        33.76623        -0.82996
C         47.67864        35.93329        -0.49048
C         46.46274        35.22006        -0.66938
C         47.71774        37.33538        -0.23598
C         46.50505        38.06716        -0.20387
C         47.73350        40.09024         0.48438
C         46.51214        39.42793         0.16429
C         47.73818        41.46738         1.14770
C         46.42728        42.20568         0.86388
C         48.04350        44.54211         1.28096
C         46.23500        43.50883         1.30219
C         47.83722        45.93810         0.98038
C         46.50469        46.56830         0.96103
C         47.70696        48.76835         0.81145
C         46.49678        48.01409         0.78124
C         47.71049        50.17399         0.64932
C         46.47235        50.86888         0.47165
C         47.71032        53.02166         0.37138
C         46.46961        52.29742         0.33609
C         47.71677        54.43341         0.22899
C         46.49932        55.12593        -0.05373
C         46.49074        56.50879        -0.38399
C         50.14867        18.93979         1.56881
C         48.99556        18.23854         1.65707
C         50.16259        20.36438         1.32056
C         48.92059        21.07027         1.18738
C         50.16146        23.15102         0.66332
C         48.92106        22.48256         0.93509
C         50.17257        24.58278         0.39599
C         48.94749        25.33323         0.55245
C         50.19049        27.41096         0.04303
C         48.98044        26.72459         0.37584
C         50.18685        28.80953        -0.20590
C         48.91375        29.50163        -0.35035
C         50.17016        31.61339        -0.55495
C         48.89197        30.89946        -0.70534
C         50.16229        33.08221        -0.63140
C         48.92343        33.84260        -1.02029
C         50.22048        35.91456        -0.53943
C         48.93992        35.15331        -0.25087
C         50.22943        37.33256        -0.26039
C         48.96703        38.01445        -0.01541
C         50.22062        40.10071         0.56438
C         48.94464        39.38816         0.33396
C         50.20465        41.58078         0.58252
C         49.03953        42.27024         0.85005
C         50.29295        44.45417         0.42584
C         49.07636        43.72983         0.85603
C         50.26646        45.97128         0.45141
C         49.00625        46.65767         0.75473
C         50.26861        48.84089         0.78019
C         49.01231        48.09805         1.16182
C         50.22124        50.20848         0.67991
C         48.95214        50.91072         0.64258
C         50.17269        53.07456         0.70780
C         48.94645        52.31722         0.52933
C         50.10795        54.50358         0.69554
C         48.94247        55.15342         0.40474
C         52.65955        20.44179         1.42717
C         51.38496        21.06212         1.17042
C         52.63998        23.02928         0.32457
C         51.36441        22.42421         0.74638
C         52.63796        24.50311        -0.07235
C         51.37276        25.25162         0.09379
C         52.63633        27.36467        -0.29224
C         51.41925        26.67783        -0.05043
C         52.65299        28.76645        -0.43898
C         51.41685        29.48140        -0.43681
C         52.63576        31.56175        -0.93232
C         51.44348        30.88380        -0.69217
C         52.62101        32.99430        -1.32908
C         51.38228        33.78769        -1.09889
C         52.66062        35.92140        -0.96010
C         51.38511        35.24962        -0.86922
C         52.66560        37.36415        -0.72881
C         51.44541        38.01882        -0.30877
C         52.71367        40.22572        -0.11484
C         51.52252        39.40739         0.19114
C         52.77499        41.56565         0.19060
C         51.54029        42.25616         0.67656
C         52.88863        44.54319         0.73306
C         51.57137        43.75781         0.75525
C         52.77326        46.02470         0.38935
C         51.55255        46.70695         0.54938
C         52.76928        48.81251         0.74460
C         51.53306        48.11431         0.67064
C         52.68947        50.24622         1.05546
C         51.50873        50.98853         0.47009
C         52.46875        53.04808         1.62134
C         51.38550        52.41197         0.95042
C         53.84965        21.10784         1.28061
C         55.12042        23.14679         0.59232
C         53.91507        22.42806         0.73941
C         55.11598        24.55466         0.22572
C         53.92137        25.21869        -0.02449
C         55.16048        27.40789        -0.22619
C         53.91780        26.62134        -0.56393
C         55.14057        28.81087        -0.34717
C         53.89113        29.50063        -0.55023
C         55.12346        31.66279        -0.73647
C         53.88839        30.89175        -0.77345
C         55.13529        33.05435        -0.95205
C         53.92491        33.73637        -1.55113
C         55.09148        35.91600        -1.40674
C         53.82783        35.20652        -1.17950
C         55.06643        37.42678        -1.31210
C         53.83302        38.09397        -0.88394
C         55.14721        40.26549        -0.82785
C         53.79675        39.59657        -0.95059
C         55.12905        41.70298        -0.61163
C         53.97689        42.32913        -0.12132
C         55.32139        44.50569         0.11690
C         53.94396        43.85117        -0.15184
C         55.18607        45.99714        -0.17264
C         53.98449        46.74678         0.19060
C         55.27777        48.89706         0.56852
C         53.99231        48.16529         0.45086
C         55.60655        49.77704         1.62731
C         53.59686        50.90538         1.84192
C         53.53064        52.31791         2.09398
C         57.56215        23.22169         0.75077
C         56.38695        22.52488         0.83355
C         57.58941        24.62659         0.46814
C         56.37626        25.29090         0.21602
C         57.59394        27.46140         0.10585
C         56.37161        26.71957         0.01629
C         57.57789        28.88053        -0.02645
C         56.35268        29.56673        -0.24701
C         57.56138        31.73075        -0.29744
C         56.34405        30.98646        -0.42004
C         57.56186        33.15264        -0.52383
C         56.34868        33.80638        -0.86390
C         57.55681        35.96026        -1.12209
C         56.36479        35.21893        -1.14390
C         57.53824        37.40990        -1.27080
C         56.35579        38.12851        -1.20340
C         57.54216        40.29531        -1.51065
C         56.30694        39.57411        -1.13629
C         57.52515        41.79681        -1.46193
C         56.32937        42.47588        -0.91350
C         57.59816        44.58131        -1.01117
C         56.39837        43.83629        -0.71064
C         57.55517        45.98029        -0.97534
C         56.23634        46.56955        -0.84845
C         57.70864        48.86465        -0.02132
C         56.35349        48.58983        -0.28541
C         57.97794        49.70030         1.07694
C         56.92687        50.19125         1.85748
C         60.08313        24.70388         0.62560
C         58.84593        25.35846         0.46451
C         60.06509        27.51368         0.31443
C         58.83407        26.77720         0.30326
C         60.04419        28.94063         0.17451
C         58.79936        29.63120         0.06795
C         59.99953        31.82673         0.38284
C         58.76588        31.04941        -0.00366
C         59.99776        33.26429        -0.08726
C         58.79167        33.90435        -0.48579
C         60.02989        36.03919        -0.75150
C         58.79952        35.29623        -0.81492
C         60.06949        37.43490        -1.09043
C         58.83441        38.09625        -1.63524
C         60.02916        40.30627        -1.50459
C         58.83101        39.59751        -1.46336
C         60.03220        41.77594        -1.55395
C         58.82726        42.49077        -1.41535
C         60.01998        44.65141        -1.49470
C         58.82803        43.90366        -1.30560
C         59.98111        46.10295        -1.40268
C         58.75638        46.77593        -1.08188
C         59.99869        48.87753        -0.92663
C         58.80315        48.17562        -0.74685
C         61.28046        25.42406         0.63512
C         61.27995        26.80489         0.48709
C         61.25792        29.71035         0.02514
C         61.25174        31.06535         0.03190
C         61.17330        34.01594         0.00729
C         61.19691        35.36647        -0.32569
C         61.24594        38.20305        -1.08156
C         61.24884        39.56735        -1.35967
C         61.22454        42.53104        -1.70169
C         61.21263        43.91670        -1.71635
C         61.15826        46.86553        -1.58696
C         61.15426        48.23871        -1.39627
O         55.00902        36.74157        -2.62759
O         44.46272        22.74759         2.57409
O         54.63268        50.22514         2.52003
O         47.29667        27.46246         2.01368
O         32.09762        26.97926         1.67517
O         52.60227        23.44627        -1.09208
O         33.38038        45.82778        -0.63609
O         37.10898        55.00902         0.90651
O         27.46266        27.12634        -2.06099
O         40.48012        33.61537        -2.25182
O         23.55291        26.85226        -2.26258
O         50.19149        32.49023         0.68524
O         32.46319        44.48448         2.77743
O         26.96810        35.83771         1.47164
O         26.72145        44.09222         2.39468
O         37.69623        37.06474        -1.45497
O         32.36302        41.80705         2.93906
O         39.13282        21.77996        -1.46004
O         29.59023        44.27096         2.87655
O         29.61884        33.38574         1.91667
O         51.71122        33.30647        -2.45823
O         29.96063        40.49828         2.51795
O         46.71953        18.42544         2.55906
O         47.15815        44.01089         2.22264
O         37.68083        44.87426        -0.76496
O         46.49880        29.65267        -1.90971
O         56.06246        47.83732        -1.43429
O         36.63508        21.56448         1.57827
O         27.30936        48.66005         2.37401
O         57.31577        41.09767        -2.74934
O         43.29086        18.33491         1.96256
O         39.65688        47.97340        -1.54592
O         41.82832        38.25311         1.87530
O         50.23312        45.17351        -0.82590
O         51.53989        42.96489         1.98373
O         35.68900        33.50291        -1.76841
O         51.07928        39.51801         1.59890
O         45.10815        28.82752         1.53494
O         44.50509        25.30574         2.44355
O         45.30442        32.40349        -2.48327
O         49.02654        34.20107        -2.41975
H         49.11733        33.38410        -2.95329
O         39.25427        26.99649         1.83558
H         38.51848        26.58170         2.33270
O         30.89374        50.39219         1.54145
H         30.24524        50.01168         2.17184
O         47.77576        41.21286         2.58016
H         47.76107        42.08863         3.02684
O         58.91761        37.90985        -3.10668
H         58.19016        38.43350        -3.50818
O         28.77138        51.01072        -1.39159
H         28.81823        50.07313        -1.70360
O         29.67375        39.96770        -1.13041
H         29.25298        39.30293        -1.72279
O         33.94054        20.77495         1.81851
H         34.81355        21.07720         2.17313
O         37.50040        40.27462        -0.88096
H         38.20633        40.79230        -1.32129
O         48.95015        34.83681         1.16755
H         48.99306        35.67818         1.66857
O         43.65112        30.36245        -2.66432
H         43.70729        31.19389        -3.19893
O         35.02063        50.62651         1.65476
H         35.68097        50.15837         2.21692
O         54.19159        33.72941        -2.98268
H         53.32126        33.86110        -3.42629
O         36.77573        48.34974         2.11112
H         36.25630        47.67589         2.60357
O         28.24359        37.31350        -1.66438
H         27.39872        37.06078        -2.09640
O         24.21864        25.63126         1.12680
H         24.16611        24.77559         1.60298
O         31.40790        50.21551        -2.09340
H         31.21482        51.02135        -2.64544
O         39.31773        18.30898        -2.13194
H         39.31947        19.26995        -2.33443
O         39.14067        42.45795         2.85013
H         39.36138        41.56313         3.20981
O         29.79299        48.34441        -1.32309
H         30.51829        48.62279        -1.93582
O         45.15237        37.74945        -2.13580
H         45.88448        37.27594        -2.58628
O         41.46633        57.03744         1.12985
H         42.05867        56.41354         1.62157
O         42.68188        54.64284         1.71662
H         41.89588        54.14002         2.02390
O         45.51190        18.97378        -0.87739
H         46.29570        19.53522        -1.05487
O         49.06994        48.06691         2.64648
H         48.22277        47.68614         2.96404
O         55.79223        44.29782         1.46492
H         55.07589        44.60268         2.07741
O         36.92271        39.17130         2.54764
H         36.11089        38.85013         2.99286
O         42.81872        32.99452        -2.89776
H         41.89651        33.05043        -3.25023
O         59.97766        31.91008         1.86148
H         59.97535        30.98931         2.20044
O         30.92077        52.63006        -2.08441
H         29.95705        52.41163        -2.01211
O         51.70893        51.08668        -0.98503
H         51.82836        50.17367        -1.32381
O         35.41057        44.83741         2.78375
H         34.58972        44.48547         3.20017
O         53.55045        44.18190        -1.50881
H         54.13379        43.69652        -2.13011
O         53.39181        39.88572        -2.34630
H         54.01216        39.40415        -2.93664
O         40.16083        39.95903         2.72776
H         40.58488        39.10153         2.97846
O         34.44158        50.36935        -1.96111
H         33.59310        50.35059        -2.45754
O         53.34136        44.60419         2.11260
H         52.92038        43.84389         2.58924
O         40.11252        26.98125        -1.71520
H         40.82049        27.43983        -2.21489
O         40.48316        50.30362        -2.16956
H         39.98498        49.55031        -2.56775
O         53.94579        26.45545        -2.03409
H         54.67194        25.83138        -2.24751
H         22.80012        23.54754        -0.47433
H         20.71934        24.83273        -0.55120
H         20.70490        27.30660        -0.59319
H         20.80971        29.21124        -1.36614
H         20.86591        31.65395        -1.40808
H         20.98550        33.51294        -1.76005
H         21.02001        35.93540        -1.77379
H         21.02641        37.84075        -1.66888
H         21.04190        40.25774        -1.51748
H         21.09823        42.13987        -1.52447
H         21.05431        44.54556        -1.26230
H         21.00921        46.40423        -0.97393
H         22.90910        50.00985         0.36687
H         20.94644        48.83269        -0.58019
H         24.52004        22.58045        -0.52023
H         24.58780        50.91929         0.78680
H         26.62225        21.35721        -0.64561
H         26.65813        52.01697         0.54129
H         30.35072        19.20461        -0.77296
H         28.27354        20.42846        -0.94475
H         30.89651        53.89049         0.62987
H         28.72191        52.87763         1.19855
H         31.98787        18.26621        -0.74708
H         31.94499        54.84464        -1.15938
H         34.08362        17.05848        -0.68416
H         34.04880        56.12557        -1.00868
H         37.92495        14.93641        -0.14200
H         35.77582        16.09401        -0.28139
H         37.82062        58.20239        -1.44987
H         35.70625        57.04524        -1.31467
H         39.59182        14.04041        -0.83465
H         39.49071        58.97055        -1.95078
H         43.82961        14.03970        -0.12852
H         41.75412        12.83931        -0.67417
H         43.77279        58.90995        -1.76729
H         41.66717        60.06132        -2.30202
H         45.48069        15.04902        -0.07945
H         45.35120        58.22778        -0.92142
H         47.45921        16.16450         0.79158
H         47.43410        57.06403        -0.46188
H         51.10141        18.40411         1.66916
H         49.01161        17.16038         1.86619
H         51.02733        55.08783         0.83403
H         48.94699        56.24908         0.34375
H         52.68753        19.41810         1.82201
H         52.39686        54.11402         1.87902
H         54.77495        20.59362         1.57346
H         54.31602        52.78721         2.70013
H         58.50093        22.68429         0.93648
H         56.42665        21.45343         1.07033
H         59.01486        49.94894         1.34215
H         57.13567        50.84583         2.71321
H         60.12917        23.61347         0.74067
H         60.03523        49.95014        -0.69009
H         62.23203        24.89010         0.76514
H         62.23600        27.34387         0.51367
H         62.20625        29.18241        -0.14910
H         62.19624        31.60931        -0.10982
H         62.09929        33.54692         0.36640
H         62.14652        35.91027        -0.23888
H         62.20772        37.73193        -0.83442
H         62.20985        40.09847        -1.36012
H         62.18393        42.01502        -1.84326
H         62.16419        44.44234        -1.87308
H         62.09411        46.37220        -1.88029
H         62.07316        48.81938        -1.55604
