         429
 CSIRO Nanostructure Databank - Neutral Graphene Oxide Data Set
C          2.43699         4.42754        -4.77715
C          1.07909         4.50451        -4.46380
C          1.62163         6.10511        -2.73974
C          0.67047         5.34252        -3.42812
C          1.35608         8.23972        -1.84737
C          0.23529         9.00446        -2.14703
C          1.45589        11.00008        -1.52205
C          0.31998        10.40037        -2.07580
C          1.42653        12.39863        -1.13865
C          0.43881        13.29984        -1.61207
C          1.10612        15.00593        -0.01537
C          0.34313        14.60223        -1.13705
C          1.11037        16.38523         0.49560
C         -0.05094        17.16416         0.32668
C          1.09793        19.17646         1.05864
C         -0.07485        18.51489         0.64830
C          1.06158        20.62363         1.44745
C         -0.11220        21.49289         1.18585
C          1.15740        23.51328         1.96109
C         -0.05781        22.82542         1.35839
C          1.19153        25.00968         1.74382
C          0.03462        25.73677         2.05523
C          1.23816        27.83138         1.83403
C          0.05350        27.12997         2.08487
C          1.28393        29.30061         2.03998
C          0.06434        30.10859         1.94661
C          1.35122        32.18933         1.74485
C          0.12682        31.47602         1.89918
C          1.41893        33.69206         1.91605
C          0.12794        34.44279         1.72179
C          1.33703        36.46097         1.06445
C          0.11950        35.75407         1.39254
C          1.34985        37.85086         0.84488
C          4.83583         5.01253        -4.41517
C          3.38421         5.17409        -4.06609
C          4.03295         6.78899        -2.24919
C          3.00245         6.06427        -3.03086
C          3.83118         8.02042        -1.55923
C          2.62887         8.80855        -1.55221
C          3.67886        10.80791        -0.45713
C          2.61135        10.21379        -1.18289
C          3.57419        12.11109         0.15740
C          2.33696        12.83741        -0.14318
C          3.63028        14.93779         1.38338
C          1.96430        14.02751         0.51641
C          3.54256        16.30458         1.20494
C          2.29085        17.02492         1.00128
C          3.59635        19.17054         1.51955
C          2.29267        18.43584         1.18936
C          3.54006        20.57845         0.94309
C          2.38523        21.34666         1.54482
C          3.59006        23.48186         1.22558
C          2.41780        22.81656         1.50808
C          3.61206        24.93893         1.16044
C          2.38605        25.68864         1.42176
C          3.63648        27.83490         1.17509
C          2.41969        27.12317         1.47147
C          3.74485        29.23378         1.29402
C          2.59725        30.02422         1.80495
C          3.75880        32.15243         1.20662
C          2.56478        31.48798         1.56586
C          3.74499        33.55904         0.92081
C          2.57178        34.31294         1.16010
C          3.71526        36.36435         0.42269
C          2.54389        35.70695         0.89780
C          3.72045        37.79405         0.24065
C          2.51804        38.51019         0.47796
C          6.86578         4.46707        -3.06643
C          5.69286         5.18217        -3.19174
C          6.35399         6.61017        -1.29958
C          5.34214         6.20305        -2.25144
C          6.18200         7.82704        -0.61947
C          5.03581         8.66998        -0.99665
C          5.96042        10.42921         0.64010
C          4.95444        10.08368        -0.44850
C          5.92597        11.90808         1.05019
C          4.69253        12.70672         0.81100
C          6.03496        14.79208         1.19882
C          4.81265        14.12622         1.17105
C          6.10412        16.26495         1.31495
C          4.81712        17.03055         1.29988
C          6.02710        19.12277         0.78891
C          4.83980        18.46643         1.02802
C          6.04060        20.58161         0.75058
C          4.85556        21.31341         0.97344
C          6.03834        23.43612         0.81984
C          4.82910        22.73450         0.98948
C          6.03690        24.88679         0.75449
C          4.79088        25.60251         0.86319
C          6.09751        27.77068         0.62310
C          4.76533        27.07259         0.52525
C          6.12267        29.19354         0.64745
C          4.94141        29.92601         0.97332
C          6.20165        32.07299         0.57413
C          5.06499        31.40146         1.30080
C          6.15096        33.46170         0.22129
C          4.91111        34.21142         0.38552
C          6.00841        36.28424        -0.49935
C          4.87210        35.59569         0.13529
C          6.09493        37.76055        -0.43792
C          4.91473        38.46590        -0.11829
C          8.99957         3.97520        -1.88890
C          7.79590         4.75157        -2.02041
C          8.56741         6.12773        -0.07520
C          7.56612         5.84713        -1.18096
C          8.54763         7.59217         0.35914
C          7.29976         8.39536         0.16735
C          8.47221        10.38860         1.25336
C          7.38326         9.91915         0.25773
C          8.52701        11.89511         1.15366
C          7.25082        12.60585         1.34992
C          8.52763        14.77444         0.86203
C          7.33632        14.11327         1.51270
C          8.47375        16.19623         0.59776
C          7.32477        16.95657         0.81034
C          8.43266        19.09758         0.19052
C          7.28099        18.39210         0.57766
C          8.47300        20.55083         0.15218
C          7.26373        21.26653         0.49640
C          8.44838        23.38124         0.36192
C          7.23865        22.69016         0.57415
C          8.49294        24.82914         0.65777
C          7.23780        25.59033         0.62688
C          8.54276        27.72012         0.33777
C          7.29858        27.03375         0.55112
C          8.54268        29.13960         0.15055
C          7.35265        29.88119         0.39016
C          8.57100        31.96153        -0.11172
C          7.37011        31.31489         0.30157
C          8.65494        33.45900         0.02004
C          7.31878        34.11163        -0.20092
C          8.55699        36.25272        -0.80046
C          7.30207        35.49570        -0.66851
C          8.53091        37.67026        -0.93773
C          7.30695        38.39224        -0.73671
C         11.29694         3.53961        -1.03667
C         10.05150         4.38554        -1.09068
C         11.12164         6.23031         0.15159
C          9.96394         5.60980        -0.36390
C         11.10032         7.60920         0.53109
C          9.83875         8.38793         0.25642
C         10.98199        10.44441         1.00280
C          9.79026         9.72834         0.92964
C         10.95974        11.88224         0.95936
C          9.69518        12.59131         0.90638
C         10.92167        14.69360         0.21643
C          9.67379        14.03438         0.66699
C         10.97361        16.16327         0.08827
C          9.65530        16.83909        -0.01343
C         10.93144        19.01938        -0.48672
C          9.61968        18.32817        -0.23951
C         10.92410        20.52025        -0.61404
C          9.63900        21.26823        -0.24242
C         10.63275        23.57710        -0.58670
C          9.56373        22.70022        -0.15917
C         10.89344        24.81440        -0.08721
C          9.79235        25.57183         0.52900
C         10.95226        27.64049        -0.24002
C          9.78198        27.01772         0.21370
C         10.95779        29.06560        -0.49136
C          9.73118        29.80642        -0.27751
C         10.87944        31.90325        -1.01582
C          9.70383        31.21489        -0.45154
C         10.94212        33.37800        -1.01331
C          9.79147        34.10375        -0.73820
C         10.94236        36.21783        -1.31842
C          9.77191        35.53785        -0.92638
C         10.94955        37.63680        -1.40416
C          9.74946        38.34685        -1.18697
C         13.71857         3.60790        -0.59623
C         12.50704         4.22515        -0.43879
C         13.53915         6.19982         0.64127
C         12.39581         5.53358         0.17354
C         13.54584         7.61686         0.88863
C         12.27715         8.31557         0.80464
C         13.44255        10.47783         1.13125
C         12.24962         9.74879         0.96430
C         13.39468        11.88406         1.11834
C         12.17745        12.56979         0.92602
C         13.46089        14.75000         0.56917
C         12.22005        13.96728         0.45165
C         13.45220        16.12275         0.21357
C         12.18028        16.83168        -0.01801
C         13.42507        18.95408        -0.20597
C         12.21437        18.28362        -0.22478
C         13.48913        20.39723        -0.27551
C         12.29641        21.12709        -0.51394
C         13.58641        23.21915        -0.46082
C         12.47603        22.46510        -0.84984
C         13.51154        24.68330        -0.21634
C         12.23188        25.46065        -0.07659
C         13.40500        27.56054        -0.60098
C         12.22477        26.92890        -0.31985
C         13.40345        28.95849        -1.16122
C         12.14652        29.70798        -0.82904
C         13.43581        31.87852        -1.15488
C         12.15757        31.13276        -1.18308
C         13.40417        33.31801        -1.35045
C         12.17573        34.00877        -1.37638
C         13.43513        36.17181        -1.69128
C         12.12716        35.44284        -1.82330
C         13.41154        37.62606        -1.71093
C         12.19653        38.31373        -1.63282
C         16.24535         3.64579        -0.30807
C         14.91523         4.07634         0.09125
C         16.04996         6.23519         1.00095
C         14.80870         5.49141         0.78564
C         16.00842         7.63473         1.31018
C         14.73877         8.30375         1.16321
C         15.93723        10.45952         1.71004
C         14.78515         9.79507         0.99214
C         15.84141        11.94343         1.84314
C         14.60231        12.68151         1.42791
C         15.87293        14.79690         0.88346
C         14.65335        14.10245         0.96819
C         15.90505        16.14413         0.43119
C         14.68906        16.80748         0.15217
C         15.98013        18.97302        -0.06673
C         14.72244        18.20540        -0.40828
C         15.99952        20.36102        -0.04821
C         14.74303        21.09085        -0.18476
C         15.97728        23.29742         0.09409
C         14.75767        22.50746        -0.17913
C         15.97756        24.74579        -0.28472
C         14.77635        25.41508        -0.39425
C         15.89577        27.57195        -0.97154
C         14.72714        26.91537        -0.24442
C         15.86187        29.07018        -0.74360
C         14.67536        29.74635        -0.87470
C         15.86316        31.99140        -0.77736
C         14.61732        31.20078        -0.92480
C         15.89391        33.37811        -1.29149
C         14.64742        34.03721        -1.49996
C         15.90538        36.17338        -2.05163
C         14.62224        35.46432        -1.69379
C         15.88214        37.64977        -1.72232
C         14.65450        38.32374        -1.69031
C         18.68227         3.72411        -0.06003
C         17.37069         4.28609         0.17118
C         18.45747         6.21604         1.31890
C         17.27876         5.57004         0.84696
C         18.36660         7.50742         1.94377
C         17.17382         8.31655         1.77520
C         18.31014        10.60079         2.32871
C         17.10620         9.78122         2.00288
C         18.37940        11.96465         1.93408
C         17.11692        12.71928         1.81836
C         18.42429        14.65745         0.82213
C         17.12453        14.13610         1.32727
C         18.44848        16.08497         0.31023
C         17.17467        16.85557         0.26452
C         18.49789        18.91904        -0.33221
C         17.20591        18.21578         0.03030
C         18.47341        20.41034        -0.04616
C         17.27081        21.08241         0.06980
C         18.53194        23.35897         0.12639
C         17.26335        22.56244         0.28309
C         18.47865        24.76366        -0.35269
C         17.22522        25.45245        -0.45572
C         18.39707        27.56363        -0.84759
C         17.21436        26.86832        -0.68267
C         18.42792        29.01796        -0.61275
C         17.13019        29.77328        -0.44820
C         18.43034        31.94071        -0.90811
C         17.16503        31.27047        -0.55159
C         18.40106        33.33618        -1.17354
C         17.13930        34.04702        -1.36817
C         18.34741        36.18337        -1.56415
C         17.16865        35.46375        -1.62308
C         18.33562        37.63511        -1.49147
C         17.09486        38.32891        -1.55994
C         19.78821         4.29005         0.49127
C         20.81809         5.99134         1.95057
C         19.70225         5.51294         1.25282
C         20.68006         7.11864         2.76407
C         19.49006         7.84430         2.75029
C         20.64594        10.84832         3.09341
C         19.45285        10.11786         2.99244
C         20.74403        12.09829         2.49863
C         19.59690        12.69784         1.93558
C         20.83980        14.73200         1.17982
C         19.65867        14.03621         1.34708
C         20.87117        16.07788         0.72711
C         19.73345        16.79861         0.39526
C         20.90859        18.96672         0.29249
C         19.75058        18.23154         0.18869
C         20.91871        20.37847         0.09627
C         19.75084        21.09558        -0.03262
C         20.91272        23.27395        -0.74793
C         19.81788        22.58483        -0.05692
C         20.85311        24.61998        -0.97517
C         19.67005        25.39469        -0.73799
C         20.86315        27.62032        -0.68989
C         19.67551        26.84372        -1.18864
C         20.86585        28.99199        -0.64364
C         19.68146        29.77078        -0.78034
C         20.85608        31.92196        -1.15511
C         19.65594        31.20371        -0.92212
C         20.83604        33.29589        -1.34959
C         19.63372        34.01862        -1.35611
C         20.76778        36.24275        -0.92668
C         19.68523        35.49501        -1.66450
C         20.69236        37.59792        -0.79777
C         19.51422        38.31539        -1.15990
O         12.96022        25.02867         1.14755
O         10.86105        19.67546        -1.80900
O          7.64840         7.79050         1.48027
O          9.33658        25.16542         1.85185
O         14.92332        12.45629         2.86652
O          9.34197        17.38838        -1.34302
O         17.81671        29.29081         0.73249
O         16.49601        23.02291         1.44837
O         11.47905        23.09358        -1.58072
O         16.45896        31.89601         0.57628
O          5.47233         9.89037        -1.81612
O         18.44177        14.92971        -0.61359
O          2.48748        14.24541         1.79631
O          1.73079        20.82028         2.74598
O         17.13955        13.85760         2.76316
O         19.41141         8.89738         3.66722
O          5.54875        16.77168         2.58913
O         14.73665         4.24513         1.53138
O         11.28835        31.40433        -2.35645
O         19.46026        23.17894         1.24410
O          1.14477         6.86508        -1.67207
O          6.42210        12.04436         2.43108
O          6.37442        35.72733        -1.79911
O          2.17579        29.67122         3.16627
O         11.61533        14.03026        -0.89984
O          8.09096        10.02535         2.60815
H          8.62324        10.56262         3.23077
O         11.60932         3.00868        -2.33354
H         11.77537         3.75965        -2.93935
O          5.22190         6.01280        -5.38547
H          5.09143         6.89358        -4.97682
O          7.83019        10.47861        -0.99556
H          7.12380        10.30908        -1.67531
O         14.90391        27.16162         1.17790
H         14.27946        26.56344         1.65351
O         20.05530        35.57833        -3.09399
H         19.99818        36.52380        -3.34995
O          1.06240        23.34635         3.40842
H          1.21416        22.38397         3.58745
O          7.52812        14.35790         2.94158
H          6.86024        13.80518         3.40851
O         18.59042        18.81811        -1.79758
H         18.47940        17.87274        -2.03682
O          8.99046        33.70572         1.44787
H          8.31319        33.24329         1.98871
O          3.77844        19.26149         2.94881
H          4.07855        18.38699         3.27898
O          5.50961         9.66204         1.77048
H          6.17288         9.79698         2.49107
O         15.13023         9.98829        -0.44526
H         14.41065         9.58005        -0.97421
O         13.37053        28.77878        -2.64275
H         12.94145        29.57406        -3.03042
O         19.76635        26.83238        -2.66692
H         18.91001        26.50259        -3.01479
O          9.93438         8.70526        -1.18974
H          9.30939         9.45916        -1.36197
O          4.44371        27.10050        -0.93475
H          4.47120        28.04075        -1.21547
O          3.22674        20.41631        -0.47757
H          3.41505        21.26328        -0.93396
O         15.73008        27.35315        -2.40273
H         14.89792        27.80458        -2.69785
O         11.90217        35.36252        -3.29925
H         12.48147        34.64814        -3.64235
O         15.94897        36.11234        -3.52863
H         15.16851        36.60643        -3.86049
O          8.12704         5.32572         1.06452
H          7.58155         5.92688         1.62813
O          1.75060        33.87806         3.35013
H          2.56507        33.36000         3.52865
O         14.80459        18.03603        -1.87449
H         13.97211        17.60864        -2.17162
O          5.43741        31.45549         2.74125
H          4.81216        30.87236         3.22530
H          2.77953         3.75759        -5.57814
H          0.34515         3.90148        -5.01491
H         -0.38491         5.40833        -3.13455
H         -0.71405         8.51129        -2.39086
H         -0.56109        11.00527        -2.32624
H         -0.22407        12.98832        -2.43051
H         -0.35277        15.30568        -1.61492
H         -0.97077        16.68493        -0.03654
H         -1.01876        19.06829         0.55272
H         -1.02739        21.03708         0.77925
H         -0.94818        23.43179         1.13211
H         -0.88407        25.20521         2.33769
H         -0.85799        27.66979         2.37467
H         -0.91572        29.61250         1.92091
H         -0.81758        32.03738         1.91345
H         -0.81829        33.95321         1.99079
H         -0.83006        36.30916         1.35144
H          0.42070        38.42293         0.98181
H          5.01540         4.01838        -4.89234
H          2.51196        39.60120         0.34142
H          7.10845         3.68402        -3.80022
H          4.91894        39.56572        -0.15467
H          9.11673         3.07208        -2.50571
H          7.34207        39.49196        -0.75682
H         11.06378         2.64887        -0.38858
H          9.75312        39.44529        -1.24631
H         13.78931         2.72162        -1.24508
H         12.20373        39.41396        -1.64495
H         16.34640         2.77939        -0.97858
H         14.64631        39.41851        -1.57218
H         18.75571         2.78681        -0.62998
H         17.08559        39.41800        -1.39763
H         20.77515         3.81885         0.37558
H         21.76849         5.44117         1.91433
H         21.50064         7.44892         3.41371
H         21.49992        10.40901         3.62450
H         21.69741        12.64050         2.53862
H         21.79584        14.28245         1.48066
H         21.84914        16.57807         0.73135
H         21.85913        18.48439         0.55834
H         21.88194        20.90528         0.14171
H         21.77981        22.69438        -1.09539
H         21.70431        25.11906        -1.46028
H         21.78125        27.07257        -0.43174
H         21.81688        29.50408        -0.43231
H         21.81554        31.38877        -1.18569
H         21.78258        33.82141        -1.53651
H         21.67732        35.70947        -0.61564
H         21.53454        38.15715        -0.36429
H         19.49223        39.40849        -1.04722
