         324
 CSIRO Nanostructure Databank - Neutral Graphene Oxide Data Set
C         30.39545        57.24095        -0.93043
C         30.35477        58.61358        -0.74679
C         29.13769        59.30737        -0.51056
C         30.32300        61.37305         0.02963
C         29.13394        60.66122        -0.16233
C         32.95113        52.90504        -0.88573
C         32.88339        54.36839        -0.80971
C         31.65446        55.13345        -1.06321
C         32.87856        57.27923        -0.89979
C         31.64026        56.51910        -1.01232
C         32.88162        58.64681        -0.68812
C         31.61449        59.43398        -0.91104
C         32.77992        61.40378         0.09687
C         31.58517        60.76404        -0.19377
C         35.44034        48.76903        -0.16038
C         35.43198        50.13076        -0.41786
C         34.21299        50.82436        -0.69095
C         35.46332        52.93214        -1.19709
C         34.16252        52.22253        -0.87644
C         35.46053        54.41609        -0.94302
C         34.17433        55.12735        -0.76880
C         35.40474        57.27723        -0.67070
C         34.17433        56.57707        -1.19361
C         35.34118        58.64895        -0.31125
C         34.09219        59.34954        -0.37618
C         35.23593        61.40911         0.31616
C         34.05127        60.73877        -0.01245
C         37.82127        44.44227         0.75208
C         37.87903        45.94900         0.57578
C         36.69520        46.64299         0.52442
C         37.93441        48.69232        -0.14518
C         36.63961        48.15074         0.51022
C         37.94439        50.20421        -0.17183
C         36.67961        50.90450        -0.33933
C         37.90702        53.02890        -0.57189
C         36.68601        52.26369        -0.60699
C         37.89515        54.39050        -0.81475
C         36.63894        55.12244        -0.90114
C         37.81561        57.27482        -0.34086
C         36.62364        56.57808        -0.67406
C         37.74777        58.60025         0.13337
C         36.52523        59.31152         0.13172
C         37.67137        61.44816         0.64867
C         36.49251        60.73832         0.40335
C         40.36014        40.08850         0.55331
C         40.32764        41.54406         0.30837
C         39.10846        42.34426         0.48716
C         40.37499        44.45944         0.45779
C         39.13061        43.71293         0.51922
C         40.36905        45.90196         0.45396
C         39.15582        46.60970         0.50189
C         40.44836        48.71808         0.00970
C         39.17988        48.11548         0.54768
C         40.39516        50.11361        -0.42570
C         39.13490        50.87154        -0.23359
C         40.45676        53.04826        -0.46949
C         39.16764        52.36647        -0.05033
C         40.42801        54.43810        -0.67111
C         39.16653        55.13663        -0.86649
C         40.36007        57.28648        -0.06990
C         39.13151        56.65100        -0.57834
C         40.27994        58.59353         0.46286
C         38.96537        59.21858         0.68547
C         40.21654        61.44284         0.93813
C         38.92919        60.77697         0.94164
C         42.81285        35.93248         0.02507
C         42.80435        37.23979         0.51831
C         41.59968        37.97476         0.55908
C         42.81733        40.12915         0.96292
C         41.55170        39.38939         0.67783
C         42.85248        41.61077         0.82395
C         41.62606        42.30919         0.33548
C         42.84648        44.46032         0.50767
C         41.60073        43.77642         0.46599
C         42.84123        45.88275         0.38378
C         41.62695        46.60131         0.33641
C         42.91807        48.73018        -0.09336
C         41.64789        48.02572         0.06138
C         42.96013        50.15821        -0.31326
C         41.69836        50.87159        -0.60195
C         42.93207        53.03765        -0.83575
C         41.66608        52.34369        -0.53049
C         42.98583        54.53460        -0.73937
C         41.66849        55.25045        -0.72164
C         42.78123        57.21993         0.35314
C         41.60883        56.61466        -0.13760
C         42.71127        58.59574         0.77845
C         41.45830        59.29254         0.78905
C         42.65314        61.40408         1.20166
C         41.42402        60.72499         1.02559
C         45.11751        33.42964        -1.56850
C         43.95445        34.02725        -1.07520
C         45.27480        35.86262        -0.15484
C         44.01877        35.25994        -0.37145
C         45.39139        37.08128         0.73214
C         44.09510        37.88975         0.88770
C         45.36551        40.14947         0.71833
C         44.12794        39.39558         0.99516
C         45.37234        41.56421         0.62605
C         44.13959        42.33521         0.70134
C         45.34351        44.49346         0.60304
C         44.09120        43.72237         0.60145
C         45.29730        45.90105         0.19632
C         44.08658        46.59665         0.20953
C         45.43573        48.71230         0.23453
C         44.10958        48.01551         0.03178
C         45.41726        50.17403        -0.14064
C         44.17887        50.84775        -0.34116
C         45.52791        53.09293        -0.66015
C         44.22539        52.27688        -0.75863
C         45.37545        54.45741        -0.00025
C         44.17759        55.16995        -0.11442
C         45.21168        57.13515         0.89813
C         44.06359        56.51480         0.37370
C         45.08889        58.48993         1.56362
C         43.87911        59.27577         1.16265
C         45.10034        61.39077         1.47996
C         43.87524        60.69879         1.31073
C         46.35502        34.03808        -1.39845
C         47.72806        35.87669        -0.50695
C         46.46923        35.27322        -0.68511
C         47.89391        37.15925         0.26250
C         46.54750        37.94787         0.16921
C         47.77465        40.06771        -0.04865
C         46.67400        39.38079         0.75626
C         47.75202        41.56090        -0.20213
C         46.58385        42.26204         0.34892
C         47.77957        44.38585        -0.24232
C         46.66586        43.70545         0.46820
C         47.54933        45.65175        -0.71367
C         46.50045        46.55360        -0.27456
C         47.90653        48.68415        -0.51799
C         46.61048        47.93370        -0.33455
C         47.90349        50.14195        -0.18755
C         46.61995        50.87668        -0.10782
C         47.84887        52.95699         0.30817
C         46.67468        52.29933        -0.08430
C         47.80681        54.37904         0.62323
C         46.55307        55.08331         0.52053
C         47.64563        57.10156         1.42844
C         46.46101        56.44638         0.94874
C         47.57766        58.54259         1.77660
C         46.35200        59.28817         1.50477
C         47.57781        61.42717         1.49031
C         46.34401        60.69808         1.52879
C         49.06667        37.96505        -0.23088
C         50.24324        40.10866        -0.45371
C         49.06907        39.34683        -0.23059
C         50.25801        41.53102        -0.43623
C         49.03591        42.27955        -0.38168
C         50.30982        44.38840        -0.44132
C         49.05242        43.68766        -0.43615
C         50.42010        45.82425        -0.37086
C         49.38111        46.68684        -0.77915
C         50.33532        48.61167         0.29365
C         49.21735        47.98987        -0.31787
C         50.31413        50.03959         0.59332
C         49.11745        50.82019         0.32880
C         50.35898        52.94590         0.67936
C         49.06129        52.19465         0.52161
C         50.22664        54.33872         1.26549
C         48.95558        55.03674         1.14678
C         50.07652        57.14713         1.99900
C         48.86116        56.41982         1.52181
C         50.14380        58.62227         1.77552
C         48.86450        59.34524         1.87331
C         50.02543        61.41731         1.19489
C         48.81826        60.78110         1.53415
C         51.48718        42.23324        -0.38182
C         52.74553        44.32421         0.01558
C         51.52557        43.63793        -0.28347
C         52.77695        45.68850         0.33297
C         51.55743        46.46519         0.19240
C         52.65813        48.43099         1.27342
C         51.50763        47.84327         0.49872
C         52.70503        49.94695         1.26273
C         51.46026        50.65520         1.09310
C         52.64137        52.80069         1.85798
C         51.40626        52.10658         1.38946
C         52.67156        54.27554         1.70005
C         51.38648        54.96691         1.68937
C         52.66448        57.16521         2.00545
C         51.37068        56.39577         2.08525
C         52.62744        58.65577         1.75220
C         51.30904        59.31887         1.60341
C         52.42347        61.39413         0.79286
C         51.27553        60.73328         1.20613
C         53.97856        46.38129         0.64375
C         55.15334        48.47669         1.10479
C         53.97398        47.75365         0.96335
C         55.16394        49.89000         1.35919
C         53.89618        50.60628         1.51274
C         55.19658        52.80027         1.77511
C         53.92723        52.00987         2.12285
C         55.11177        54.22148         1.37112
C         53.86991        54.94241         1.57648
C         55.01093        57.12522         0.96368
C         53.92880        56.42548         1.67362
C         54.90586        58.47491         0.59325
C         53.85637        59.34738         1.19291
C         54.48639        61.15001        -0.47820
C         53.81811        60.83670         0.82211
C         56.36484        50.56941         1.28327
C         57.43321        52.73704         0.54101
C         56.45278        52.03562         1.36446
C         57.35537        54.10706         0.32585
C         56.20801        54.85711         0.82153
C         56.83003        56.71159        -0.70795
C         56.27680        56.35943         0.65502
C         56.57063        58.09074        -1.23070
C         55.68004        58.99168        -0.48329
C         56.21281        60.73129        -2.16476
C         55.44254        60.30067        -1.04327
C         58.30164        54.74183        -0.55140
C         58.87206        56.57388        -2.11690
C         58.06305        55.99959        -1.12625
C         58.60307        57.86717        -2.67316
C         57.50945        58.64625        -2.21015
C         58.16188        60.48377        -3.68780
C         57.29243        59.96960        -2.68570
C         59.45515        58.42779        -3.66180
C         59.21999        59.71054        -4.16109
O         43.57556        52.49422        -2.05634
O         33.54216        54.85141         0.50523
O         48.01051        49.65984        -1.61389
O         44.12858        38.51914         2.22007
O         38.79990        59.75376         2.00617
O         46.24014        44.26177         1.75523
O         40.96950        50.32973        -1.77212
O         51.57370        52.41028         2.80870
O         53.61290        56.84058         3.06478
O         56.27476        52.58909         2.72468
O         42.66677        40.99773         2.15146
O         48.14920        58.93302         3.08815
O         48.42781        46.17540        -1.66971
O         47.33666        40.63606        -1.32130
O         50.59380        56.68748         3.29396
O         53.61879        59.27965         2.63195
O         41.09884        41.85394        -0.94856
O         55.83292        56.86130        -1.74647
O         42.48395        55.18634        -1.95395
O         39.23640        56.13107        -1.94406
O         39.15399        48.51367         1.96952
H         39.89495        48.05274         2.41785
O         31.65828        59.78263        -2.34731
H         30.84915        60.30371        -2.53840
O         39.13191        52.57525         1.41215
H         38.32012        52.14123         1.75332
O         50.87885        53.12289        -0.68179
H         50.13334        53.38795        -1.26188
O         47.11166        39.30968         2.13135
H         46.31855        39.16037         2.69066
O         35.60076        52.77920        -2.65625
H         36.40286        53.27229        -2.93305
O         34.29202        56.54777        -2.65583
H         34.18974        57.46676        -2.98340
O         36.53238        48.59808         1.89284
H         37.41620        48.46963         2.31635
O         53.98098        51.75876         3.54695
H         53.04883        51.71246         3.86310
O         54.55765        61.55380         1.86134
H         54.35359        61.09799         2.71057
O         37.98277        48.20623        -1.50345
H         37.28632        48.66359        -2.01931
O         45.64656        48.72627         1.70336
H         45.60122        47.79509         2.01305
O         45.95926        53.38709        -2.02039
H         45.15599        53.30352        -2.59185
O         44.89418        58.19721         3.01077
H         45.78169        58.10641         3.42253
O         36.78696        43.88037        -0.06479
H         37.03562        44.01269        -1.00258
O         48.25356        36.79544         1.62082
H         47.42396        36.53076         2.09364
O         52.37097        48.10252         2.68083
H         53.10511        48.46614         3.22115
O         45.69234        36.56479         2.05593
H         45.25045        37.16741         2.70273
O         57.27795        56.82787         1.61231
H         56.94690        56.63250         2.51496
O         46.20597        38.08243        -1.22619
H         46.68064        38.84988        -1.61773
H         29.45770        56.66390        -0.90307
H         28.19014        58.74927        -0.53685
H         30.28566        62.40216         0.41623
H         28.17450        61.16021         0.03437
H         32.01222        52.33394        -0.80668
H         30.70575        54.58374        -1.15840
H         32.76123        62.42741         0.50275
H         34.50268        48.19620        -0.23543
H         33.26737        50.26774        -0.59733
H         35.19365        62.48042         0.56312
H         37.51319        44.24558         1.81839
H         35.75135        46.07851         0.58315
H         37.65412        62.54787         0.62857
H         39.41614        39.52857         0.46528
H         38.15083        41.82067         0.62925
H         40.24671        62.53961         0.85965
H         41.85109        35.45854        -0.22373
H         40.66528        37.44504         0.31760
H         42.65275        62.49888         1.30818
H         45.04876        32.47634        -2.11109
H         42.97700        33.55118        -1.23720
H         45.09623        62.48913         1.53085
H         47.26290        33.57219        -1.80731
H         48.62617        35.35316        -0.87124
H         47.54195        62.51345         1.32261
H         50.00809        37.42625        -0.42225
H         51.20135        39.57640        -0.55090
H         50.00873        62.47700         0.90077
H         52.42540        41.66215        -0.32189
H         53.67318        43.73603         0.08409
H         52.33007        62.45012         0.49520
H         54.94021        45.85113         0.56558
H         56.11886        47.97238         0.94506
H         54.30629        62.13657        -0.93002
H         57.28199        50.00835         1.04711
H         58.20083        52.14667         0.01850
H         56.01689        61.73050        -2.58133
H         59.17436        54.15809        -0.88140
H         59.76360        56.02980        -2.46363
H         57.99576        61.49730        -4.07912
H         60.30652        57.84020        -4.03367
H         59.88737        60.12024        -4.93236
