         490
 CSIRO Nanostructure Databank - Neutral Graphene Oxide Data Set
C         40.40655        51.50316        -5.66038
C         39.71683        52.41798        -6.44141
C         40.38959        54.20085        -4.95648
C         39.71079        53.77653        -6.08966
C         41.98554        49.60355        -4.06747
C         41.86705        50.96099        -3.70234
C         41.11094        51.91036        -4.50166
C         41.77400        53.72197        -2.92525
C         41.09652        53.28753        -4.14118
C         41.85082        55.08660        -2.56230
C         43.52135        49.15890        -2.21741
C         42.78889        48.73134        -3.34803
C         43.34480        50.48732        -1.75992
C         42.52059        51.39933        -2.51016
C         42.85325        53.12656        -0.71596
C         42.40089        52.75633        -2.10147
C         43.02171        54.60172        -0.48253
C         42.52748        55.50573        -1.39328
C         45.64662        46.12318        -1.41675
C         44.72473        46.95676        -2.04321
C         45.35659        48.76917        -0.57041
C         44.51989        48.27851        -1.59724
C         45.06188        50.08354         0.10573
C         44.14098        50.99802        -0.66541
C         45.09434        52.94111         0.51538
C         44.03793        52.31214        -0.25633
C         45.01783        54.29444         0.88847
C         43.66678        54.98409         0.83575
C         44.90677        57.09704         1.37638
C         43.75964        56.46784         1.03578
C         47.50769        44.30751        -0.08802
C         47.28803        45.68048         0.49872
C         46.46476        46.60470        -0.38493
C         47.27710        48.52726         1.05585
C         46.36562        47.96119        -0.01978
C         47.41838        50.03151         0.94597
C         46.31711        50.78534         0.57140
C         47.44801        52.85776         1.27767
C         46.29551        52.19946         0.76521
C         47.41416        54.26485         1.49244
C         46.18761        54.98972         1.32389
C         47.36201        57.08991         1.91241
C         46.15713        56.39273         1.55374
C         47.38524        58.48388         2.15846
C         49.96898        44.30057         0.14517
C         48.70060        43.67987        -0.18111
C         49.92269        45.64549         0.76640
C         48.58440        46.34658         0.94751
C         49.79772        48.47189         1.35292
C         48.60775        47.80827         1.08712
C         49.78423        49.90031         1.58237
C         48.62404        50.67056         1.39454
C         49.81087        52.80200         1.93463
C         48.64097        52.11180         1.54971
C         49.82271        54.22483         2.01314
C         48.60613        54.95384         1.85148
C         49.81582        57.06672         2.28391
C         48.59563        56.37100         2.02137
C         49.80441        58.46846         2.46300
C         48.57391        59.14545         2.43885
C         52.48720        41.61152        -0.33253
C         51.28916        42.25970        -0.35782
C         52.46426        44.38431         0.15656
C         51.18246        43.64879        -0.00071
C         52.44445        45.83357         0.56188
C         51.14125        46.45738         0.87884
C         52.31555        48.44454         1.69184
C         51.07861        47.76171         1.33159
C         52.28187        49.80185         2.04461
C         50.99977        50.53692         2.10019
C         52.32193        52.79098         2.57990
C         51.00846        52.03166         2.33603
C         52.30729        54.16985         1.90313
C         51.04799        54.94453         2.20086
C         52.32262        57.06643         2.26083
C         51.06214        56.33254         2.29318
C         52.33367        58.45822         2.34106
C         51.09028        59.20059         2.79185
C         52.26425        61.29887         2.11844
C         51.10827        60.63930         2.33701
C         54.99061        40.11866        -0.13283
C         54.94626        41.51805         0.11075
C         53.72188        42.25861         0.05482
C         54.92734        44.31919         0.70646
C         53.72414        43.63534         0.34222
C         54.89720        45.72665         1.14560
C         53.66979        46.42346         1.13649
C         54.74701        48.35567         2.18838
C         53.57167        47.73401         1.67236
C         54.55635        49.65008         2.73796
C         53.45062        50.46752         2.49541
C         54.87961        52.74864         2.60822
C         53.58626        51.97306         2.16595
C         54.81763        54.21493         2.13662
C         53.59873        54.91835         2.12832
C         54.78121        57.06218         2.00121
C         53.56435        56.34045         2.10775
C         54.78527        58.50481         2.00276
C         53.55611        59.19799         2.17051
C         54.77405        61.34220         2.07052
C         53.55260        60.62672         2.13860
C         54.81851        62.78603         2.10545
C         57.41479        40.08902         0.12382
C         56.18162        39.42992        -0.12938
C         57.40064        41.47706         0.36967
C         56.16705        42.21156         0.37270
C         57.42945        44.37856         0.76264
C         56.13952        43.60634         0.66527
C         57.36250        45.56128         1.74830
C         56.08618        46.38648         1.60071
C         57.31348        48.49690         2.04346
C         56.05489        47.72913         2.05670
C         57.40465        49.88260         1.99478
C         56.38189        50.75726         2.49169
C         57.29868        52.77049         1.57730
C         56.12308        52.03782         2.08950
C         57.29310        54.24928         1.55242
C         56.00982        54.94458         1.85272
C         57.15616        57.10899         1.31185
C         55.97806        56.33769         1.78081
C         57.31700        58.49509         1.89403
C         56.00131        59.24070         1.90404
C         57.33576        61.35399         2.09851
C         56.00592        60.63131         1.98239
C         57.26080        62.84384         1.79054
C         55.98411        63.48288         1.96073
C         59.82616        37.20298        -0.22600
C         58.68199        37.90670        -0.10097
C         59.88259        40.01257         0.23450
C         58.67690        39.35500         0.05362
C         59.88689        41.34689         0.94206
C         58.63287        42.16566         0.71487
C         59.90399        44.13095         1.47200
C         58.63802        43.49588         1.01727
C         59.90419        45.61909         1.73726
C         58.63829        46.35386         1.60056
C         59.82880        48.55103         1.43523
C         58.65666        47.78624         2.05088
C         59.75819        49.85942         1.04391
C         58.45975        50.53841         1.17753
C         59.53869        52.72986         0.23439
C         58.34524        51.98916         0.84388
C         59.53472        54.22758         0.49346
C         58.41291        54.92539         0.83366
C         59.59480        57.17379         0.58115
C         58.34560        56.40640         0.75274
C         59.63060        58.53772         0.79026
C         58.45517        59.27025         1.26593
C         59.70569        61.38438         1.14798
C         58.45464        60.63052         1.36686
C         59.69333        62.87907         1.24407
C         58.40284        63.57310         1.47267
C         59.60055        65.69122         1.10196
C         58.45111        65.01339         1.39494
C         62.40401        35.71855        -0.50470
C         62.38146        37.11300        -0.27775
C         61.11632        37.91650        -0.50460
C         62.33567        39.95748         0.27211
C         61.14225        39.31415         0.09018
C         62.39958        41.46552         0.22086
C         61.15062        42.15677         0.71949
C         62.47596        44.19675         1.40076
C         61.17419        43.46019         1.08721
C         62.41088        45.67816         1.13116
C         61.20818        46.36823         1.61607
C         62.28304        48.55045         0.78255
C         61.14267        47.87768         1.42279
C         62.17960        49.96103         0.53121
C         60.93558        50.64542         0.68338
C         62.07431        52.79709         0.32898
C         60.87435        52.04553         0.49284
C         62.06417        54.22757         0.11978
C         60.76272        54.92323         0.01426
C         62.04795        57.13988         0.02473
C         60.75644        56.45084         0.04073
C         62.02701        58.58930         0.10972
C         60.84517        59.27688         0.48005
C         61.98097        61.42265         0.11416
C         60.85783        60.69152         0.52651
C         61.89075        62.90960        -0.11507
C         60.82205        63.63409         0.66216
C         62.02556        65.75128         0.32015
C         60.81436        65.01696         0.67743
C         62.04522        67.19640         0.26122
C         64.82583        35.66600        -0.27752
C         63.58788        35.00190        -0.43292
C         64.82721        37.08163        -0.15873
C         63.59375        37.77998        -0.06888
C         64.86846        39.95947         0.09841
C         63.62204        39.18602         0.46939
C         64.87871        41.34823         0.29402
C         63.67270        42.01571         0.90879
C         64.79159        44.23906         0.41097
C         63.67715        43.51706         0.81678
C         64.76124        45.69479         0.38587
C         63.53594        46.39298         0.73308
C         64.65975        48.53423         0.14004
C         63.48349        47.83858         0.56568
C         64.54116        49.96901        -0.31860
C         63.34476        50.70831         0.21548
C         64.61312        52.85831         0.36568
C         63.31624        52.10090         0.24620
C         64.55699        54.31884        -0.02671
C         63.27203        54.96684        -0.02104
C         64.47752        57.18415        -0.13992
C         63.21687        56.41160        -0.10932
C         64.37892        58.58948        -0.62851
C         63.17704        59.33369        -0.22805
C         64.39880        61.47402        -0.52206
C         63.16209        60.74231        -0.27052
C         64.39134        62.92508        -0.36518
C         63.22295        63.61403        -0.07201
C         64.46085        65.75848        -0.12909
C         63.22195        65.04430         0.07751
C         64.50107        67.21822         0.16357
C         63.19718        67.90902         0.15078
C         67.37333        32.92186         0.11554
C         66.15348        33.55731        -0.04751
C         67.30119        35.69985        -0.26615
C         66.08806        34.96056        -0.19762
C         67.26091        37.12126        -0.46431
C         66.06804        37.81380        -0.28696
C         67.23496        40.00733        -0.56004
C         66.04529        39.26968        -0.28559
C         67.18649        41.41777        -0.49336
C         66.02690        42.10706        -0.04025
C         67.17879        44.29965        -0.22113
C         65.99848        43.54640         0.03367
C         67.15017        45.72690        -0.22312
C         65.91135        46.42052         0.03520
C         67.06490        48.61854        -0.40936
C         65.86870        47.86441        -0.05749
C         67.05159        49.99210        -0.49716
C         65.83012        50.74813        -0.26427
C         67.07400        52.88687        -0.20644
C         65.80874        52.11500        -0.18136
C         67.03097        54.35967        -0.34955
C         65.78118        55.01330        -0.19303
C         67.00357        57.24060        -0.64719
C         65.79674        56.49459        -0.18792
C         66.93885        58.60665        -0.86832
C         65.64687        59.33936        -0.91083
C         66.86236        61.53751        -0.61472
C         65.59109        60.80480        -0.74106
C         66.82291        62.99494        -0.76492
C         65.62489        63.66016        -0.58548
C         66.71549        65.94261        -1.15065
C         65.60070        65.10071        -0.54187
C         67.09318        67.13021        -0.22725
C         65.83019        67.93071         0.15164
C         67.13987        70.03493         0.03540
C         65.94011        69.40735         0.11241
C         69.79748        31.81384         1.37782
C         69.88285        32.90907         0.33584
C         68.58008        33.65180         0.14085
C         69.79609        35.80320        -0.17846
C         68.55345        35.03302        -0.09892
C         69.77447        37.12405        -0.56979
C         68.49043        37.80476        -1.00904
C         69.67485        40.01219        -0.95424
C         68.49750        39.31590        -0.81193
C         69.68330        41.48621        -1.07435
C         68.35724        42.20994        -0.88302
C         69.60999        44.34120        -0.59100
C         68.39406        43.63712        -0.54924
C         69.58479        45.75713        -0.43154
C         68.36161        46.43803        -0.41738
C         69.60290        48.63780        -0.49456
C         68.32845        47.88962        -0.81825
C         69.58728        50.03585        -0.59433
C         68.29291        50.72193        -0.96878
C         69.56290        52.91346        -0.82049
C         68.33060        52.15794        -0.50229
C         69.46289        54.36646        -1.20368
C         68.21473        55.08691        -0.69565
C         69.44130        57.19722        -1.36298
C         68.21181        56.47892        -0.82784
C         69.43430        58.65631        -0.93108
C         68.15685        59.39766        -1.26707
C         69.39002        61.57695        -0.95653
C         68.16642        60.80724        -0.68300
C         69.18325        62.87645        -1.66811
C         68.11710        63.75191        -0.93240
C         69.30346        65.82937        -1.48579
C         67.95729        65.12154        -1.65234
C         69.42493        67.12193        -1.05932
C         68.19295        67.99204        -0.90033
C         69.62164        69.93417        -0.12302
C         68.38418        69.32673        -0.20337
C         69.78435        71.32947         0.22300
C         72.18908        31.98782         1.76122
C         70.91433        31.34531         1.97791
C         72.26000        33.18145         1.10070
C         71.07792        33.81205         0.56501
C         72.26431        35.94196         0.12354
C         71.05250        35.14630         0.17575
C         72.28208        37.19193        -0.39154
C         71.04084        37.83434        -0.84820
C         72.20096        40.16149        -0.94865
C         70.98848        39.33265        -1.10219
C         72.16208        41.51328        -0.84368
C         70.92602        42.25917        -0.88406
C         72.06884        44.47379        -0.93797
C         70.87661        43.64930        -0.78752
C         72.05917        45.80625        -0.72056
C         70.86897        46.46603        -0.07179
C         71.96854        48.72489         0.00307
C         70.81082        47.96743        -0.22702
C         71.95781        50.11181        -0.12077
C         70.77342        50.79381        -0.45256
C         71.99181        53.00664        -0.76815
C         70.75776        52.24944        -0.69854
C         71.97724        54.36675        -0.82495
C         70.75612        55.12609        -0.96031
C         71.95732        57.30276        -1.00747
C         70.74753        56.50180        -1.04289
C         71.96297        58.65575        -0.93135
C         70.70975        59.42250        -0.76094
C         71.72578        61.54541        -1.77933
C         70.75425        60.96176        -0.78085
C         71.61540        62.82430        -2.20524
C         70.45874        63.65030        -1.89708
C         71.75258        65.75180        -1.92828
C         70.49547        65.02933        -1.79399
C         71.89326        67.01999        -1.48652
C         70.76668        67.71057        -0.82574
C         72.11794        69.91869        -0.56842
C         70.87058        69.15232        -0.36193
C         72.15966        71.25313        -0.34003
C         70.98518        71.96279         0.10218
O         67.60209        61.02785         0.65046
O         71.08313        38.38448        -2.23446
O         65.27090        57.04853         1.08999
O         57.82036        51.00349        -0.09786
O         68.88475        41.93459        -2.22699
O         61.48034        47.27624         2.74466
O         50.74879        51.12091         3.45453
O         60.52376        55.69584        -1.20581
O         52.59130        45.45954        -0.86383
O         55.58713        50.19481         3.49427
O         59.89102        44.61855         2.85472
O         57.28131        56.97165        -0.13777
O         65.26722        67.47071         1.43459
O         57.87205        53.53276         2.73087
O         64.78162        58.82356        -2.01463
O         49.18593        45.61780         2.06835
O         69.92873        58.91911         0.40281
O         67.96974        52.39363         0.90384
O         60.12381        62.05651         2.42809
O         71.03553        68.03416         0.59427
O         57.65117        44.99253        -0.54769
H         57.49089        44.31238        -1.23534
O         62.55309        41.80544        -1.19033
H         61.91408        41.26923        -1.70648
O         52.37522        53.07582         3.98216
H         52.09913        52.26151         4.45957
O         57.29926        45.01245         3.09253
H         57.68572        45.67761         3.70451
O         59.90654        41.00064         2.36756
H         59.85793        41.83968         2.87607
O         64.24311        49.84173        -1.76551
H         65.04870        49.48449        -2.19719
O         68.62329        64.03243         0.38443
H         68.65630        63.18807         0.88528
O         57.71580        61.23989         3.51881
H         58.63429        61.60969         3.57597
O         63.69855        38.99064         1.94651
H         64.51333        38.47521         2.13111
O         67.82447        68.41940        -2.24025
H         67.15719        67.78361        -2.60420
O         58.93693        47.67851         3.49828
H         59.89983        47.44120         3.58752
O         59.39279        52.66143        -1.21327
H         58.85672        51.85516        -1.40637
O         46.63036        48.28507         2.34289
H         45.70494        48.62309         2.25730
O         68.22863        50.74667        -2.42607
H         68.29441        49.80500        -2.72165
O         51.15311        59.23652         4.26074
H         52.00875        59.64784         4.50699
O         52.21619        53.98410         0.44086
H         52.29139        54.86920         0.02441
O         68.42235        37.60830        -2.46149
H         69.29243        37.91167        -2.82126
O         46.48324        45.47215         1.69195
H         47.11065        45.34173         2.43737
O         67.67591        66.62482         0.97531
H         66.95484        66.53964         1.64106
O         64.85742        52.88630         1.82244
H         65.75609        53.25564         1.96774
O         68.65478        62.47328        -2.99241
H         68.47902        61.49586        -3.00315
O         61.11809        38.19543        -1.95797
H         61.05192        37.33348        -2.42153
O         62.60798        44.10157         2.85727
H         62.91038        43.17955         3.05372
O         70.14069        32.21920        -0.93853
H         70.99122        31.74093        -0.83865
O         63.61472        41.66952         2.32157
H         63.56753        40.67806         2.39830
O         44.32643        49.70693         1.33271
H         43.97440        50.53339         1.72908
O         42.84539        54.46861         1.92504
H         42.37329        53.66506         1.58841
O         61.44221        63.02046        -1.52609
H         61.52185        63.96407        -1.78411
O         66.04734        66.51700        -2.31252
H         66.26484        65.91059        -3.06628
O         69.31420        57.19407        -2.82504
H         69.24033        56.23980        -3.09069
O         54.94506        52.79451         4.04257
H         55.82169        53.15640         4.29174
O         71.02750        46.23944         1.37423
H         71.07619        45.27036         1.51645
O         71.22885        61.35086         0.55052
H         70.70140        60.82805         1.19566
O         53.68281        51.86280         0.72623
H         53.31900        52.67611         0.29795
O         67.72045        64.91563        -3.06241
H         68.12755        64.06431        -3.35805
O         57.69738        58.31618         3.28985
H         57.74551        59.22255         3.68509
O         41.72899        52.69707         0.19007
H         40.90927        53.10432        -0.16579
O         68.12980        59.64364        -2.70618
H         68.34833        58.78284        -3.14751
O         69.27516        54.38291        -2.68136
H         69.90744        53.73770        -3.06594
O         68.28466        47.86847        -2.30430
H         67.60549        47.21164        -2.57068
H         40.39615        50.44563        -5.95597
H         39.17602        52.07928        -7.33587
H         40.36249        55.26710        -4.69484
H         39.16488        54.50270        -6.70757
H         41.46597        49.22003        -4.95542
H         41.40921        55.85823        -3.20509
H         42.87570        47.69611        -3.70251
H         42.62418        56.58512        -1.20268
H         45.71930        45.07362        -1.73356
H         44.11005        46.53835        -2.85087
H         44.88070        58.18287         1.54335
H         42.82221        57.04162         0.98522
H         46.59877        43.73908        -0.33545
H         46.45575        59.06757         2.13898
H         48.71397        42.65060        -0.56764
H         48.53241        60.22365         2.64279
H         52.50419        40.54698        -0.59830
H         50.38488        41.69334        -0.61744
H         52.22842        62.36932         1.87070
H         50.16383        61.19997         2.29826
H         54.06606        39.56056        -0.32692
H         53.88277        63.34864         2.22312
H         56.16232        38.35181        -0.33296
H         55.93290        64.58056         1.93663
H         59.79017        36.10421        -0.23821
H         57.73569        37.36063         0.01554
H         59.58397        66.78900         1.13299
H         57.55165        65.59318         1.64395
H         61.46824        35.17644        -0.70072
H         61.09008        67.73900         0.30290
H         63.55872        33.91092        -0.55625
H         63.16635        69.00763         0.13528
H         67.39411        31.82939         0.22712
H         65.23221        32.95939        -0.03401
H         67.16025        71.12882         0.15103
H         65.03129        69.99584         0.30676
H         68.83328        31.31597         1.55429
H         68.90791        71.90655         0.54845
H         73.09208        31.54550         2.20384
H         70.86469        30.48860         2.66546
H         73.22776        33.69998         1.05318
H         73.21407        35.49378         0.44420
H         73.23519        37.72776        -0.49566
H         73.17632        39.65656        -0.97228
H         73.10735        42.06293        -0.73078
H         72.98024        44.00020        -1.33124
H         72.96843        46.39754        -0.90410
H         72.90470        48.21698         0.27360
H         72.89117        50.66533         0.04773
H         72.95475        52.48350        -0.70086
H         72.93422        54.90427        -0.78260
H         72.92613        56.78510        -1.05367
H         72.91980        59.19676        -0.92176
H         72.61021        60.95432        -2.05956
H         72.42182        63.24898        -2.82449
H         72.61809        65.22958        -2.36151
H         72.87225        67.51591        -1.54852
H         73.03422        69.37847        -0.84447
H         73.09947        71.80959        -0.46535
H         71.07080        73.03313         0.33592
