         644
 CSIRO Nanostructure Databank - Neutral Graphene Oxide Data Set
C          5.88908        31.65656        -0.05667
C          5.85345        33.02064        -0.08969
C          8.35909        27.36553        -0.55458
C          8.33453        28.72054        -0.38334
C          7.16844        29.45365         0.25848
C          8.31107        31.61871        -0.29559
C          7.15018        30.93735        -0.08041
C          8.28662        33.06013        -0.73774
C          7.06136        33.79761        -0.25226
C          8.33841        35.90304        -0.15850
C          7.09875        35.15925        -0.09826
C          8.36599        37.27600        -0.00295
C         10.86764        23.06239        -0.14799
C         10.81518        24.44026        -0.64481
C          9.52223        25.16279        -0.92370
C         10.75061        27.31954        -1.16056
C          9.56257        26.65610        -0.93718
C         10.78384        28.78268        -1.16361
C          9.50650        29.51557        -0.77082
C         10.83970        31.64102        -0.60065
C          9.61932        30.88832        -0.14122
C         10.81629        33.06871        -0.61341
C          9.58337        33.79291        -0.48640
C         10.81464        35.93581        -0.34599
C          9.58747        35.18421        -0.33753
C         10.84793        37.32001        -0.01580
C          9.57981        38.04010         0.11425
C         10.48116        40.33084         0.55120
C          9.43266        39.43949         0.17038
C         10.76638        41.62945         0.17372
C         13.36147        18.93234         0.70522
C         13.33267        20.34485         0.55640
C         12.12281        21.03434         0.40254
C         13.32368        23.19163         0.15285
C         12.07383        22.44304         0.16755
C         13.30009        24.65131        -0.06720
C         11.97285        25.36782        -0.29682
C         13.31339        27.38051        -1.14806
C         12.05412        26.55093        -1.32938
C         13.30914        28.76008        -1.05135
C         12.06237        29.49806        -0.97713
C         13.31641        31.61175        -0.77844
C         12.03480        30.89010        -0.78157
C         13.28910        33.10735        -0.86406
C         12.00546        33.82567        -0.80314
C         13.23160        35.97258        -0.91942
C         12.01995        35.23697        -0.70903
C         13.28845        37.34298        -0.60416
C         12.13020        37.97445        -0.02239
C         13.41743        40.10488         0.18851
C         12.33976        39.26110         0.51445
C         13.33071        41.52553         0.32845
C         12.06903        42.25313         0.34372
C         13.31226        44.40054         0.31033
C         12.10238        43.65571         0.32821
C         13.31593        45.80585         0.44922
C         15.87116        14.67613         1.03653
C         15.86935        16.08662         0.93212
C         14.63652        16.80601         0.78863
C         15.83180        18.96520         0.62161
C         14.57061        18.20216         0.73286
C         15.76987        20.43119         0.79291
C         14.58107        21.10360         0.57572
C         15.78901        23.23447         0.01645
C         14.54324        22.54237         0.31840
C         15.82722        24.51860        -0.47902
C         14.59863        25.32749        -0.45911
C         15.87064        27.40901        -0.95749
C         14.61883        26.61567        -1.27903
C         15.85290        28.82403        -1.06086
C         14.57348        29.51358        -1.11397
C         15.76185        31.67327        -1.39642
C         14.54371        30.89002        -1.15507
C         15.74438        33.13175        -1.39116
C         14.46704        33.79540        -1.45298
C         15.70081        36.05726        -1.50534
C         14.42632        35.33193        -1.46490
C         15.64832        37.45162        -1.34965
C         14.47856        38.09505        -0.85767
C         15.71778        40.21572        -0.65493
C         14.55970        39.49367        -0.48292
C         15.86366        41.48737         0.14647
C         14.55310        42.27155         0.18999
C         15.78875        44.42007        -0.03453
C         14.54280        43.65693         0.18305
C         15.78173        45.90064         0.16323
C         14.52007        46.57592         0.54225
C         15.86685        48.54125         1.37123
C         14.56473        47.87869         0.98639
C         15.84215        50.04752         1.36926
C         18.25462        10.38586         1.48312
C         18.20691        11.79488         1.61395
C         17.06251        12.53616         1.35415
C         18.25198        14.70584         1.59628
C         17.05263        13.97559         1.33539
C         18.31053        16.10689         1.40351
C         17.11376        16.77654         1.03441
C         18.38058        18.94067         1.09113
C         17.14849        18.21570         0.76297
C         18.31679        20.42072         1.34225
C         17.03528        21.16684         0.96001
C         18.31932        23.11244        -0.22495
C         17.05668        22.56440         0.41211
C         18.28452        24.65073        -0.06884
C         17.11497        25.22355        -0.90127
C         18.30865        27.44432        -0.66849
C         17.07436        26.73450        -0.75606
C         18.30854        28.86059        -0.79179
C         17.07615        29.53277        -0.99800
C         18.32150        31.76550        -1.03873
C         17.09971        30.97075        -1.31105
C         18.29006        33.20628        -1.16913
C         16.97009        33.93116        -1.06773
C         18.15546        36.03421        -1.74620
C         16.95644        35.35364        -1.58624
C         18.10707        37.47433        -2.06220
C         16.81585        38.23551        -1.78599
C         18.19328        40.18265        -0.87718
C         16.85044        39.75036        -1.54059
C         18.19821        41.68976        -0.73043
C         17.08590        42.29187        -0.25712
C         18.29740        44.52089        -0.21496
C         17.10091        43.71855         0.21675
C         18.28619        45.92724         0.00272
C         17.07291        46.59353         0.35872
C         18.26528        48.69910         0.48744
C         17.08004        47.94586         0.68316
C         18.19566        50.15604         0.61444
C         16.97821        50.79218         1.18541
C         18.22469        52.91994         1.49616
C         17.02829        52.20785         1.44257
C         18.25380        54.27974         1.88802
C         20.74244         6.12333         1.45231
C         20.70248         7.49922         1.44420
C         19.48609         8.25134         1.48704
C         20.73974        10.38678         1.42694
C         19.47054         9.65383         1.50852
C         20.68295        11.87431         1.48042
C         19.45284        12.46040         2.16387
C         20.72508        14.77138         2.20662
C         19.43106        13.99722         2.12430
C         20.77202        16.20647         1.84017
C         19.57168        16.84641         1.52505
C         20.81338        19.04990         1.57988
C         19.56436        18.29129         1.38098
C         20.81732        20.42842         1.42645
C         19.59706        21.06782         0.85718
C         20.76067        23.33037         0.58920
C         19.60039        22.44381         0.28796
C         20.79513        24.69772         0.01974
C         19.60030        25.35349        -0.30350
C         20.79061        27.50103        -0.43903
C         19.57257        26.75801        -0.50856
C         20.77836        28.94713        -0.55267
C         19.54648        29.61250        -0.74694
C         20.73160        31.81593        -0.55996
C         19.50070        31.05598        -0.82020
C         20.70551        33.32594        -0.73340
C         19.45402        33.97001        -1.16752
C         20.63603        36.06581        -1.79010
C         19.45065        35.38367        -1.55885
C         20.68723        37.48560        -2.36094
C         19.39587        38.25861        -2.11511
C         20.71272        40.32873        -1.33259
C         19.41694        39.65930        -1.60685
C         20.70236        41.70786        -1.12705
C         19.39623        42.47879        -1.22155
C         20.67308        44.61001        -0.71360
C         19.46719        43.87848        -0.63282
C         20.71239        45.99416        -0.41396
C         19.49584        46.67304        -0.10156
C         20.73155        48.82960         0.06983
C         19.48419        48.08298         0.11726
C         20.76091        50.19100         0.38496
C         19.49000        50.91594         0.57903
C         20.70492        53.02827         0.92709
C         19.54935        52.17374         1.43053
C         20.67432        54.47582         1.29534
C         19.45154        55.02758         1.93273
C         20.73073        57.03251         2.57749
C         19.51300        56.29150         2.52230
C         20.79075        58.27236         3.21968
C         22.99738         3.29186         0.36358
C         21.94768         3.92559         0.98572
C         22.90954         6.08165         0.26835
C         22.06328         5.38784         1.34445
C         23.02040         7.58088         0.48956
C         22.02511         8.23944         1.44236
C         23.21084        10.49337         1.12126
C         21.92765         9.73750         1.26915
C         23.23251        11.88331         1.66367
C         21.97045        12.62959         1.58616
C         23.31941        14.71785         2.22618
C         22.00699        13.98835         2.21089
C         23.29585        16.20616         2.21864
C         22.02037        16.92582         1.95276
C         23.33650        19.00378         1.70747
C         22.05588        18.31857         1.79598
C         23.35760        20.49274         1.65174
C         22.04573        21.23552         1.53702
C         23.27831        23.36770         0.73830
C         22.01973        22.69026         1.11950
C         23.26059        24.67531         0.31975
C         22.02033        25.41438         0.07891
C         23.23910        27.57803         0.01171
C         21.99899        26.80399        -0.17213
C         23.26824        29.00609        -0.32355
C         22.02401        29.69871        -0.49845
C         23.23259        31.86226        -0.65041
C         22.02445        31.10837        -0.60565
C         23.26581        33.24865        -0.93415
C         22.00745        34.04266        -0.91865
C         23.20467        36.02827        -2.05838
C         21.94792        35.42998        -1.49376
C         23.21149        37.55282        -2.06959
C         21.93144        38.24213        -1.87064
C         23.18757        40.31722        -1.32370
C         21.94331        39.60277        -1.49512
C         23.15882        41.72218        -1.10851
C         21.92516        42.41884        -1.09858
C         23.20385        44.63093        -1.09190
C         21.90175        43.89440        -1.12693
C         23.25095        46.00023        -0.44372
C         21.94184        46.74488        -0.42286
C         23.23979        48.85199        -0.17585
C         21.96682        48.11335        -0.17713
C         23.21790        50.26973         0.17007
C         22.00391        50.92776         0.45711
C         23.19223        53.08372         0.75628
C         22.00660        52.34098         0.72720
C         23.19514        54.52119         1.08197
C         21.95370        55.19261         1.43947
C         23.13911        57.29773         1.95683
C         21.93260        56.46520         1.98593
C         23.21081        58.49269         2.80220
C         22.01855        58.99506         3.38446
C         23.29821        60.86151         4.29214
C         22.08090        60.20033         4.12564
C         24.16582         3.97850        -0.05377
C         25.40026         6.09442        -0.28200
C         24.24512         5.39665         0.01699
C         25.59918         7.53721         0.10847
C         24.29349         8.30063         0.23872
C         25.83278        10.26664         0.65620
C         24.43717         9.74702         0.65186
C         26.14028        11.47308         1.24321
C         24.37681        12.56503         1.99634
C         25.76797        14.59309         1.43473
C         24.56817        13.99381         1.86744
C         25.79267        16.07500         1.37107
C         24.61451        16.87119         1.87321
C         25.87260        19.01547         1.58770
C         24.52911        18.32102         1.60422
C         25.79668        20.49124         1.18987
C         24.58064        21.16899         1.18140
C         25.78010        23.35186         0.97421
C         24.54806        22.54837         0.57228
C         25.78674        24.77992         0.55922
C         24.54777        25.33690        -0.12873
C         25.79207        27.54595        -0.22776
C         24.54376        26.83212         0.09631
C         25.74331        28.94124        -0.36725
C         24.50574        29.66728        -0.35446
C         25.79524        31.91431        -0.55901
C         24.49534        31.14764        -0.37912
C         25.72315        33.28029        -1.10215
C         24.48977        33.93236        -1.20608
C         25.73823        36.08202        -1.78560
C         24.50341        35.22218        -2.01905
C         25.71290        37.53388        -1.81660
C         24.48116        38.25056        -1.80286
C         25.68891        40.30647        -1.23518
C         24.45937        39.62461        -1.47554
C         25.64064        41.68175        -0.71112
C         24.40210        42.47019        -0.94507
C         25.77811        44.57069        -1.05894
C         24.44531        43.83676        -0.96930
C         25.69325        46.05160        -0.74850
C         24.41534        46.80646        -1.02868
C         25.68602        49.03599        -0.80572
C         24.42208        48.23886        -0.54032
C         25.67725        50.38436        -0.11540
C         24.44147        51.00582         0.22658
C         25.68563        53.06721         0.73207
C         24.44447        52.39703         0.55632
C         25.69998        54.57771         0.75078
C         24.40071        55.19660         1.19614
C         25.70499        57.23269         2.01259
C         24.44634        56.63060         1.51618
C         25.67920        58.48269         2.62231
C         24.45880        59.13058         3.02076
C         24.47869        60.33493         3.76604
C         26.62403         8.35277        -0.65059
C         27.89995        10.50920        -0.63854
C         26.77582         9.68186        -0.28661
C         28.03304        11.82532        -0.19506
C         27.02988        12.44709         0.68158
C         27.93926        14.63346         0.08194
C         26.90652        13.83867         0.85802
C         28.07944        16.07801         0.45041
C         26.87297        16.77598         0.85592
C         28.14720        18.98563         0.51261
C         26.78762        18.28010         0.58383
C         28.30916        20.38462         1.12237
C         27.02547        21.16229         1.00673
C         28.36264        23.31761         0.55556
C         27.07437        22.61154         1.06684
C         28.21688        24.66014        -0.02098
C         27.05656        25.41957         0.12134
C         28.21975        27.41271        -0.74767
C         27.00910        26.78598        -0.30824
C         28.14306        28.81355        -1.19177
C         27.02758        29.64310        -0.62666
C         28.18644        31.80670        -1.49003
C         27.06184        31.12905        -0.76195
C         28.19306        33.29314        -1.35958
C         26.95484        33.96731        -1.38337
C         28.21289        36.07870        -1.82589
C         26.92965        35.39336        -1.60334
C         28.19007        37.59939        -1.97192
C         26.92375        38.27918        -1.70206
C         28.19878        40.39629        -1.15412
C         26.93401        39.66070        -1.36451
C         28.20496        41.73926        -0.68769
C         26.90986        42.39024        -0.34043
C         28.16228        44.60699        -0.10700
C         26.79987        43.91321        -0.11474
C         28.23548        46.05014        -0.48377
C         26.93444        46.79723        -0.72038
C         28.15589        48.89034        -0.26179
C         26.96319        48.25016        -0.50940
C         28.09517        50.37782        -0.50263
C         26.88348        51.05541         0.07880
C         28.13811        53.02058         1.13276
C         26.90451        52.36884         0.65336
C         28.09716        54.40317         1.45161
C         26.92384        55.16792         1.41012
C         26.90075        56.47052         1.91908
C         29.21951        12.57069        -0.44623
C         30.47191        14.63053        -0.19051
C         29.25531        13.92519        -0.13613
C         30.53370        16.01406         0.04617
C         29.29478        16.72212         0.31120
C         30.71014        18.84656         0.79535
C         29.39263        18.19766         0.37651
C         30.71089        20.31258         0.38605
C         29.52948        21.07095         0.53825
C         30.68112        23.06244        -0.30805
C         29.54245        22.46930         0.21565
C         30.64157        24.44334        -0.82159
C         29.35915        25.23585        -0.75265
C         30.65608        27.35783        -1.22510
C         29.40329        26.69869        -0.92664
C         30.67405        28.73112        -1.48843
C         29.41485        29.48910        -1.65957
C         30.74835        31.70948        -1.70299
C         29.42473        31.00691        -1.81666
C         30.68359        33.20799        -1.28034
C         29.41943        34.00039        -1.29443
C         30.64657        36.18835        -1.20540
C         29.45932        35.40312        -1.41185
C         30.75232        37.59459        -1.65567
C         29.46904        38.37714        -1.88120
C         30.68503        40.44861        -1.20686
C         29.45160        39.77663        -1.42201
C         30.66942        41.81481        -0.80591
C         29.42972        42.43516        -0.54250
C         30.72438        44.64738        -0.25898
C         29.46219        43.86360        -0.16667
C         30.65892        46.04280         0.03077
C         29.43905        46.78543        -0.05236
C         30.59566        48.86004         0.52557
C         29.39552        48.18183         0.07233
C         30.59191        50.26522         0.88897
C         29.49208        50.91423         1.42338
C         29.34511        52.34301         1.37200
C         31.76973        16.70190         0.00639
C         33.10409        18.75948         0.06889
C         31.89675        18.08494         0.24285
C         33.14657        20.19010         0.01790
C         31.90602        20.90977        -0.03320
C         33.22067        23.04767        -0.52233
C         31.91409        22.26817        -0.66726
C         33.13558        24.45915        -0.76403
C         31.90790        25.18753        -0.88020
C         33.11784        27.30391        -0.81528
C         31.90504        26.59661        -1.03808
C         33.18816        28.74748        -1.08255
C         31.94619        29.48001        -1.50742
C         33.08877        31.61529        -0.87077
C         31.93735        30.94675        -1.30942
C         32.95998        32.93845        -0.31129
C         31.73639        33.58853        -0.37153
C         32.98435        36.32007        -0.35848
C         31.66461        35.77044        -0.34803
C         33.18962        37.59432        -1.05761
C         31.95299        38.35268        -1.27091
C         33.21730        40.43677        -1.02112
C         31.95658        39.72680        -1.22523
C         33.08002        41.86189        -1.07479
C         31.91842        42.56084        -0.73914
C         33.17222        44.67544         0.02775
C         31.96006        43.97453        -0.39170
C         33.07508        46.03852         0.37615
C         31.86860        46.75977         0.29961
C         31.79642        48.15369         0.57446
C         34.34396        20.91588        -0.00274
C         35.69192        22.90696         0.22823
C         34.42421        22.34378        -0.15000
C         36.14720        24.20284        -0.12998
C         34.31388        25.24869        -0.84018
C         35.55893        27.26772        -0.01374
C         34.32944        26.61755        -0.57013
C         35.52365        28.77472         0.02133
C         34.29580        29.50450        -0.43962
C         35.47392        31.66094        -0.13784
C         34.34554        30.96460        -0.59011
C         35.38680        33.09067         0.15355
C         34.08374        33.53148         0.34573
C         35.41060        36.19891         0.21205
C         34.06304        35.72473         0.27955
C         35.57179        37.55625        -0.11254
C         34.50447        38.32834        -0.78175
C         35.65372        40.46167        -0.20166
C         34.45625        39.80929        -0.74257
C         35.72040        41.83970         0.19528
C         34.83386        42.83572        -0.24576
C         34.42210        44.03182         0.34552
C         37.05714        25.08632         0.42754
C         38.05897        27.46939         0.41386
C         36.86430        26.57932         0.35703
C         38.01147        28.84571         0.36484
C         36.75282        29.56371         0.19212
C         37.85021        31.75894         0.72466
C         36.68487        30.94666         0.20155
C         37.86019        33.19098         0.13839
C         36.55008        33.93274         0.39248
C         37.79015        36.04506         1.01063
C         36.54646        35.32399         0.51388
C         37.89191        37.50362         0.63263
C         36.80612        38.24286         0.18801
C         36.78254        39.67475         0.13196
C         39.21433        29.66595         0.41448
C         40.37395        31.83398         0.51823
C         39.16783        31.03224         0.50700
C         40.34492        33.19568         0.56038
C         39.10054        33.94845         0.55545
C         39.07280        35.28176         0.80077
O         23.28470         8.19418        -0.80948
O         21.11173        23.41873         2.01621
O         25.22171        31.75024         0.76140
O         17.20341        37.84808        -3.14468
O         27.52452        30.49277         0.47690
O         34.45857        29.16185         0.98111
O         35.49540        24.68971        -1.28585
O         27.41268        14.67811        -1.39090
O         34.20014        42.57139        -1.48214
O         27.86212        46.34653        -1.85112
O         18.63692        50.90751        -0.59155
O         21.20071        12.59574         0.32289
O         13.58421        32.44958         0.42472
O         14.08323        25.43410         0.91002
O         32.95930        29.03999        -2.50038
O         16.99820        22.35599         1.85328
O         26.14500        41.68657         0.69036
O         28.77209        18.85418        -0.80249
O         34.19146        37.70916        -2.09741
O         28.45436        28.91731        -2.61119
O         24.18249        16.67547         3.27148
O         22.12292        35.22150        -0.03616
O         28.19665        36.73390        -3.14140
O         22.72980        21.11321         2.83012
O         16.61833        18.59539        -0.58014
O          9.89907        29.43741        -2.15868
O         19.86212        51.75438         2.73683
O         28.82869        44.24390         1.13767
O         16.51217        31.23244        -2.63436
O         28.03155        23.20558         1.97785
O         25.59836        24.40541         1.95305
O         23.65105        10.57973        -0.29672
O         23.14002        36.71905        -3.31507
O         33.83562        34.65414         1.14476
O         28.50459        31.41673        -2.86592
O         23.68919        57.48561         0.60553
O         31.44043        34.65341         0.48554
O         19.87890        21.28252        -0.58590
O         30.33823        38.02110        -2.99234
O         25.47002        11.81017         2.41591
O         29.75997        24.53830        -2.01363
O         14.17028        34.53419        -2.68303
O         23.89320        27.27003         1.31154
O         19.89803        14.55332         3.40552
O         26.37696        18.89850         2.89071
O         19.25672        39.39301        -3.04409
O         22.73399        14.10658         3.45475
O         35.83186        26.87322         1.39142
O         20.39773        54.00733        -0.09600
O         22.50494        44.49330        -2.35569
O         20.60457        32.72030         0.59875
O         15.74233        45.28988        -1.19439
O         31.06641        32.78326        -2.62676
O         28.84201        50.94125        -1.28693
O         11.41399        39.74173         1.43901
O         14.76410        26.21072        -2.67920
H         15.67163        25.81760        -2.79069
O         18.25829        39.58285         0.43955
H         17.54330        39.98185         1.00315
O         19.54488        12.04109         3.54729
H         19.78810        12.84196         4.07444
O         22.62780         8.08474         2.76471
H         21.97769         8.38778         3.43265
O         22.77846         5.44700         2.60561
H         22.18566         5.12014         3.31278
O         18.21538        22.77768        -1.63009
H         18.70972        21.92953        -1.76205
O         16.70513        40.42707        -2.79655
H         17.34418        40.00898        -3.42180
O         28.57485        20.22367         2.54486
H         27.75227        19.76064         2.93775
O         26.05020        15.14036        -1.37589
H         25.53517        14.32011        -1.57384
O         16.81199        34.13323         0.40739
H         17.08296        33.30618         0.86232
O         25.82488        54.95238        -0.66749
H         24.97472        54.74446        -1.11055
O         18.40250        20.49970         2.79683
H         18.08071        21.39128         3.06663
O         16.12933        41.04886         1.53334
H         16.33248        41.87412         2.03986
O         16.04142        48.19031         2.80188
H         16.81150        48.69668         3.13961
O         22.15386         5.89987        -0.95593
H         22.46557         6.59332        -1.58256
O         24.65841        34.69723        -3.37788
H         24.47265        35.44268        -3.99529
O         26.09203         7.47185         1.49655
H         26.94925         6.99643         1.49203
O         24.68926        25.12196        -1.55322
H         24.73244        24.14651        -1.70186
O         11.58657        25.94124         0.97576
H         12.41692        26.14843         1.46568
O         25.69859        49.27162        -2.25971
H         26.53054        49.74477        -2.48212
O         10.23388        24.51587        -1.99486
O         37.66680        31.91362         2.15869
H         37.54346        31.02175         2.54713
O         26.23109        44.38253        -2.42324
H         25.69159        44.97249        -2.99562
O         19.16256        42.67599        -2.64790
H         19.90780        43.20233        -3.00849
O          8.16178        33.01729        -2.20665
H          8.09541        33.94330        -2.52317
O          5.93141        28.83420        -0.09393
H          5.85717        28.83366        -1.07025
O         37.92743        33.05699        -1.30943
H         38.82195        32.72776        -1.53945
O         30.82478        18.76078         2.23503
H         30.08169        19.30030         2.62342
O         26.15826        18.42168        -0.71165
H         26.84794        18.21010        -1.38238
O         26.24553        44.14557         1.19034
H         26.86084        43.74980         1.84575
O         17.28490        25.05834        -2.33445
H         17.53559        24.11709        -2.50906
O         24.72368        22.36141        -0.88833
H         24.26043        21.54157        -1.16441
O         37.62924        36.07151         2.48539
H         37.56024        35.13880         2.78522
O         20.77757        37.34448        -3.80031
H         20.46993        38.19375        -4.18991
O         28.49573        50.18291         2.01431
H         27.81913        50.78728         2.38060
O         17.93311        24.94303         1.30220
H         18.69899        24.74910         1.88314
O         12.09776        26.01734        -2.66683
H         13.01006        26.11266        -3.03035
O         17.18969        43.62267         1.69195
H         18.12446        43.43701         1.92616
O          9.81311        30.63437         1.29186
H         10.02169        31.48787         1.72731
O         24.30632        46.83071        -2.48194
H         24.81733        47.61815        -2.79370
O         31.77938        22.01280        -2.12336
H         31.39033        22.81610        -2.53517
O         23.57302        45.73128         0.94869
H         23.65712        46.58749         1.41853
H          4.96676        31.07535         0.08584
H          4.90234        33.55465         0.05625
H          7.47028        26.77173        -0.28997
H          7.26687        29.35951         1.37609
H          6.17561        35.71006         0.14099
H          7.41243        37.81594         0.10188
H          9.95537        22.45013        -0.21735
H          8.55239        24.68771        -0.65520
H          8.44909        39.85935        -0.09340
H          9.99643        42.21779        -0.34802
H         12.40698        18.38625         0.74709
H         11.17895        20.46888         0.39713
H         11.14958        44.20616         0.34218
H         12.35421        46.31762         0.60831
H         14.93189        14.12096         0.90052
H         13.69999        16.22828         0.78916
H         13.63145        48.38698         1.27531
H         14.93507        50.53550         1.76050
H         17.31577         9.83770         1.30675
H         16.14285        12.01271         1.05002
H         16.07904        52.73168         1.64292
H         17.32205        54.75947         2.23017
H         19.80272         5.54863         1.48593
H         18.53067         7.70469         1.50445
H         18.61055        56.71889         2.98525
H         19.87353        58.68843         3.66268
H         22.95336         2.20264         0.21078
H         21.08190         3.34354         1.33839
H         23.33156        61.79915         4.86442
H         21.16285        60.61072         4.56940
H         25.03484         3.40089        -0.40358
H         26.30427         5.52006        -0.55011
H         26.63080        58.93887         2.93583
H         25.43562        60.84817         3.93708
H         27.34921         7.86410        -1.31873
H         28.69209        10.08542        -1.27402
H         29.00601        54.86154         1.87200
H         27.83047        56.89771         2.32657
H         30.11997        12.05943        -0.81728
H         31.39770        14.07289        -0.39804
H         31.45661        50.87795         0.59660
H         30.26105        52.95010         1.44374
H         32.66917        16.13147        -0.27515
H         34.02157        18.19417        -0.15735
H         33.98632        46.56443         0.69744
H         32.71531        48.67981         0.87253
H         35.28544        20.36694         0.15137
H         36.33610        22.27869         0.86273
H         36.46831        42.10360         0.95851
H         35.04108        44.49142         1.13086
H         37.66902        24.75179         1.28032
H         39.04251        26.98178         0.50068
H         38.82513        38.02276         0.90111
H         37.67752        40.20462         0.49285
H         40.19043        29.15901         0.35099
H         41.34146        31.30886         0.50882
H         41.28789        33.75983         0.62477
H         40.00967        35.80339         1.05754
