         234
 CSIRO Nanostructure Databank - Neutral Graphene Oxide Data Set
C          1.52659         2.38391         2.24036
C          1.36778         3.63195         1.69934
C          2.75051         1.68571         2.13736
C          2.43950         4.27049         0.86270
C          1.27754         6.55139         1.00292
C          1.22675         7.96097         0.67679
C          2.41083         5.79775         0.88747
C          2.33760         8.68368         0.32498
C          1.17818        10.89341         0.12331
C          1.15638        12.23363        -0.26879
C          2.34333        10.11831        -0.00476
C          2.29242        12.87293        -0.77230
C          0.99913        15.07430        -0.87862
C          1.04967        16.38098        -0.51513
C          2.21500        14.30141        -1.30921
C          2.28876        17.10844        -0.43107
C          2.32608        18.46857        -0.05601
C          3.90355         2.32047         1.60877
C          3.81875         3.67102         1.11765
C          5.14596         1.64821         1.58957
C          4.99127         4.33034         0.74718
C          3.62448         6.47205         0.37838
C          3.63758         7.96951         0.39722
C          4.92341         5.72648         0.24894
C          4.88796         8.63978        -0.05929
C          3.51253        10.75979        -0.50513
C          3.51272        12.14223        -0.86465
C          4.73338         9.97121        -0.73934
C          4.75587        12.83513        -1.17971
C          3.50084        15.04922        -1.06702
C          3.51792        16.41524        -0.72678
C          4.74761        14.32398        -1.49907
C          4.73899        17.15607        -0.63766
C          3.52406        19.15624         0.06793
C          4.76755        18.50288        -0.19827
C          6.32535         2.30581         1.19716
C          6.26806         3.68813         0.83996
C          7.57404         1.61128         1.10313
C          7.49507         4.38921         0.57908
C          6.18786         6.48759         0.06424
C          6.12369         7.82988        -0.24880
C          7.45034         5.76602         0.15917
C          7.32784         8.57702        -0.65152
C          6.00270        10.71314        -1.15261
C          5.98120        12.19116        -1.19223
C          7.24345        10.06492        -0.71318
C          7.26401        12.91243        -1.19226
C          6.01802        14.99765        -1.02521
C          6.02692        16.44688        -0.74115
C          7.31132        14.31662        -1.26786
C          7.26281        17.25347        -1.06531
C          6.01905        19.13438         0.06019
C          7.26949        18.54623        -0.26887
C          8.77455         2.27200         0.90505
C          8.75024         3.72467         0.77936
C          9.98631         1.46891         0.62638
C          9.94780         4.51737         0.71893
C          8.65674         6.43405        -0.12405
C          8.64726         7.83413        -0.60547
C          9.89247         5.80223         0.15465
C          9.94357         8.55252        -0.66698
C          8.26222        10.90207        -0.35787
C          8.46540        12.23326        -0.85853
C         10.13964         9.86536        -0.32553
C          9.76326        12.85379        -0.91799
C          8.54417        15.00459        -1.16176
C          8.55817        16.45768        -0.98421
C          9.76262        14.25860        -1.13621
C          9.72468        17.14463        -0.80217
C          8.46762        19.19120        -0.05611
C          9.75995        18.64235        -0.58002
C         11.22045         1.83787         1.07506
C         11.23910         4.02738         1.17573
C         12.57479         1.38291         0.80868
C         12.47745         4.52347         0.82878
C         11.15635         6.56491         0.05275
C         11.16976         7.76031        -0.85227
C         12.47356         5.95734         0.44787
C         12.40751         8.52217        -1.12937
C         11.16421        10.71931        -0.85939
C         11.05088        12.11303        -0.96060
C         12.32919         9.99726        -1.40611
C         12.31409        12.83766        -1.15238
C         11.04335        14.97963        -1.24419
C         11.03902        16.49784        -1.00249
C         12.31204        14.25340        -1.06922
C         12.27022        17.11320        -0.46845
C         10.87739        18.97213         0.37034
C         12.07793        18.27864         0.40367
C         13.71773         2.16512         0.84127
C         13.74520         3.70445         0.88703
C         14.98072         1.41115         0.98387
C         14.96994         4.48929         0.42063
C         13.73363         6.70830         0.10458
C         13.70069         8.04546        -0.57402
C         14.98305         5.94079         0.08800
C         14.93463         8.66577        -1.12562
C         13.62657        10.74225        -1.57611
C         13.57397        12.18427        -1.28004
C         14.92177         9.99892        -1.52155
C         14.80067        12.90828        -1.23910
C         13.51825        14.98069        -0.96547
C         13.48340        16.41191        -0.64897
C         14.76816        14.30157        -1.03129
C         14.73442        17.01688        -0.32189
C         13.03773        18.61995         1.43692
C         14.40282        18.46388         1.21687
C         16.14258         1.68896         0.29125
C         16.15498         3.83726        -0.19116
C         17.50852         1.28683         0.42108
C         17.39109         4.38493        -0.13465
C         16.14413         6.54510        -0.30994
C         16.10535         7.81923        -1.03203
C         17.49597         5.89550         0.01205
C         17.14461         8.00046        -1.90855
C         16.11597        10.82962        -1.67533
C         16.06106        12.19995        -1.45765
C         17.39053        10.21817        -2.01699
C         17.37418        12.88470        -1.35461
C         16.03819        15.14122        -1.10307
C         15.94378        16.30239        -0.14008
C         17.34987        14.36393        -1.00390
C         16.97261        16.71821         0.72480
C         15.48412        18.32351         2.09925
C         16.74311        17.72840         1.76162
C         18.61933         2.06616         0.00107
C         18.63348         3.56730        -0.08371
C         19.88733         1.44004        -0.07303
C         19.96217         4.29444        -0.29024
C         18.63827         6.34540        -0.88849
C         18.35872         7.24532        -1.86918
C         20.02640         5.81931        -0.55500
C         20.16377         8.56577        -1.95543
C         18.64314        10.68513        -1.63167
C         18.61222        12.06188        -1.10329
C         19.93479         9.92973        -1.59575
C         19.73482        12.70988        -0.66159
C         18.43424        14.88971        -0.15137
C         18.23738        15.97525         0.71869
C         19.69881        14.11899        -0.17684
C         19.28326        16.35486         1.65394
C         17.79280        18.03771         2.64320
C         19.05734        17.41423         2.58675
C         21.07862         2.10296        -0.41683
C         21.15010         3.48308        -0.60940
C         22.35906         4.16079        -1.00896
C         21.10409         6.23898        -1.59598
C         21.24693         7.77559        -1.52043
C         22.38777         5.47601        -1.35390
C         22.31085         8.43849        -0.90382
C         21.05989        10.55193        -0.99018
C         21.09628        12.02970        -0.65535
C         22.23447         9.82410        -0.73908
C         21.76446        12.26234         0.68948
C         20.77622        14.51576         0.83293
C         20.51407        15.65965         1.73392
C         21.64956        13.43033         1.33325
C         21.49834        16.05234         2.65335
C         20.07286        17.79848         3.50064
C         21.28690        17.13373         3.51993
O         14.75960         4.18563         1.84726
O          6.08086        15.47139         0.37248
O         17.72120        13.91435        -2.35472
O         13.80440         7.96670         0.88350
O         14.76062        18.38683        -0.15982
O          4.52582         8.62562         1.37627
O         20.90242        14.89157        -0.57308
O         11.14723        15.93673        -2.35201
O          4.03248         5.90074        -0.93098
O         19.45608         4.05050         1.06109
O          5.19508         9.99245        -2.12490
O         11.82058         7.63130        -2.15238
O         11.20915         2.90614         1.99660
O         17.20093         9.06246        -2.80379
O         19.26711         7.83884        -2.75672
O         15.96247         2.59594        -0.78078
O          9.21966        10.44349         0.54374
O         12.77015        10.39397        -2.73398
O          7.92060         8.00588        -1.88356
O         11.69782         6.79418         1.39098
O         17.80653         6.27642         1.37652
H         17.14798         5.84962         1.96539
O          7.11376        17.63562        -2.46186
H          7.88170        18.20365        -2.69345
O          4.79560        14.41648        -2.95809
H          3.92419        14.08051        -3.28569
O         10.00528        19.26209        -1.89405
H         10.85569        18.90913        -2.23362
O         21.92248        12.64819        -1.67673
H         21.84269        13.62611        -1.55239
O          2.08949        14.13362        -2.78499
H          1.82736        15.00605        -3.15074
O          2.12457         3.93993        -0.53600
H          2.76671         4.45378        -1.08678
O         16.00251        15.76650        -2.41688
H         16.48098        15.16174        -3.03203
O         20.64008         5.79974        -2.89058
H         21.24348         6.15406        -3.57531
O         20.44173         6.44048         0.67483
H         19.79888         6.15028         1.36629
H          0.68644         1.90826         2.76749
H          0.39161         4.13155         1.77351
H          2.83334         0.66299         2.53116
H          0.32922         6.08120         1.30040
H          0.23629         8.43720         0.69705
H          0.25386        10.44030         0.50648
H          0.21013        12.78324        -0.17801
H          0.01815        14.58812        -0.98022
H          0.11841        16.91520        -0.27161
H          1.37846        18.98222         0.16392
H          5.19213         0.59598         1.90716
H          3.52778        20.20488         0.39711
H          7.56841         0.51575         1.20142
H          6.01604        20.13524         0.51900
H          9.86040         0.57058         0.00374
H          8.48444        20.17080         0.44643
H         12.71920         0.29972         0.66127
H         10.74657        19.82440         1.05361
H         14.97143         0.57680         1.70262
H         12.66028        18.97915         2.40456
H         17.73023         0.29982         0.85822
H         15.37382        18.69970         3.12728
H         19.92879         0.35052         0.07553
H         17.61975        18.79602         3.42102
H         21.98803         1.50067        -0.56254
H         23.29337         3.57718        -1.00433
H         23.34405         5.93597        -1.64709
H         23.20055         7.89155        -0.56278
H         23.11295        10.34836        -0.34024
H         22.38490        11.47025         1.13232
H         22.13788        13.56787         2.30899
H         22.46547        15.53250         2.67505
H         19.87848        18.62892         4.19402
H         22.07988        17.43956         4.21570
