         621
 CSIRO Nanostructure Databank - Neutral Graphene Oxide Data Set
C          6.20193        31.82316         1.18625
C          5.95959        33.15137         0.96957
C          8.48678        27.56618         0.56994
C          8.57449        28.92450         0.83607
C          7.42958        29.73363         1.10255
C          8.76606        31.78465         1.26385
C          7.47721        31.11898         1.28228
C          8.92434        33.15732         1.38524
C          6.98879        34.16611         1.07993
C          8.52347        35.99192         0.41148
C          7.23148        35.29134         0.35311
C          8.50542        37.36684         0.21564
C         10.89645        23.31024         0.36265
C         10.81098        24.62945        -0.02104
C          9.64836        25.42873         0.26084
C         10.74701        27.58462        -0.53185
C          9.62826        26.80180         0.14575
C         11.07351        28.85093         0.22952
C          9.92172        29.54716         0.88086
C         11.24629        31.77397         0.57584
C         10.01165        31.02101         1.08649
C         11.13632        33.21991         0.32332
C          9.97884        33.90546         0.74851
C         10.95391        36.00145        -0.04003
C          9.80308        35.29972         0.43886
C         10.92882        37.43447        -0.09780
C          9.70608        38.13241         0.10275
C         10.87861        40.29344        -0.00069
C          9.68373        39.54307         0.11979
C         10.85004        41.72333         0.00152
C         13.34310        19.00793         0.56695
C         13.34139        20.41081         0.58419
C         12.15123        21.17179         0.60817
C         13.32789        23.21689        -0.06159
C         12.13850        22.56250         0.32797
C         13.26891        24.52712        -0.71631
C         11.96960        25.27687        -0.68705
C         13.31133        27.47865        -0.90401
C         11.99909        26.77169        -0.84518
C         13.35056        28.90321        -0.79053
C         12.24352        29.63029        -0.25442
C         13.43379        31.74350        -0.63472
C         12.30029        31.01791        -0.13622
C         13.40681        33.18226        -0.68715
C         12.21623        33.90562        -0.31629
C         13.14080        36.11587        -1.25320
C         12.12399        35.30672        -0.46400
C         13.34318        37.46390        -0.59175
C         12.15756        38.16810        -0.24525
C         13.34575        40.37480        -0.26139
C         12.11491        39.58777        -0.13306
C         13.23050        41.81425        -0.54943
C         12.00002        42.49783        -0.28346
C         13.21379        44.62769        -0.60764
C         12.01623        43.91312        -0.36899
C         13.24958        46.04526        -0.44044
C         15.75407        14.67277         0.85889
C         15.73358        16.07242         0.63506
C         14.52762        16.82430         0.56414
C         15.80556        18.90719         0.36449
C         14.54532        18.23260         0.50057
C         15.89577        20.37657         0.47820
C         14.62592        21.14388         0.63315
C         15.87870        23.24805        -0.28476
C         14.62896        22.61782         0.21845
C         15.84945        24.61131        -0.65179
C         14.56006        25.29171        -0.93481
C         15.74541        27.47742        -1.22347
C         14.52086        26.77477        -1.00848
C         15.74691        28.86345        -1.37628
C         14.56320        29.60754        -1.08901
C         15.89565        31.77040        -1.10281
C         14.58320        31.02542        -1.03652
C         15.71120        33.20924        -1.50747
C         14.54529        33.88380        -1.20647
C         15.74215        36.03870        -1.66547
C         14.40804        35.29908        -1.76712
C         15.81600        37.46472        -1.27776
C         14.63341        38.15561        -0.66598
C         15.65670        40.39148        -1.32345
C         14.65237        39.65131        -0.53837
C         15.37282        41.69129        -1.63118
C         14.33796        42.50501        -1.04239
C         15.67236        44.66414        -0.97018
C         14.42769        43.94455        -0.96616
C         15.68464        46.03240        -0.55566
C         14.45047        46.73226        -0.38887
C         15.74010        48.92042        -0.09292
C         14.40461        48.21027        -0.05554
C         15.75868        50.29823         0.16471
C         18.26753        10.50742         1.88201
C         18.24476        11.89933         1.62643
C         17.03421        12.58291         1.29976
C         18.20386        14.72626         0.99942
C         16.97413        13.97853         1.03627
C         18.21248        16.09837         0.77722
C         16.98266        16.77682         0.55079
C         18.25742        18.86691         0.04297
C         16.99753        18.18187         0.30279
C         18.19686        20.19703        -0.67527
C         17.14501        21.08467         0.01181
C         18.25349        23.14983        -0.87639
C         17.09150        22.52541        -0.36152
C         18.21378        24.52586        -1.18787
C         17.03652        25.27171        -1.02195
C         18.25886        27.40895        -1.70680
C         17.07159        26.78304        -1.00480
C         18.24897        28.84132        -1.90283
C         16.92169        29.55149        -2.03645
C         18.18920        31.69793        -2.14148
C         17.03276        31.03620        -1.79079
C         18.11251        33.16228        -2.40710
C         16.84570        33.91574        -2.14740
C         18.20931        36.07866        -2.05483
C         16.90905        35.39189        -1.96032
C         18.25022        37.52393        -1.93646
C         16.95784        38.25111        -1.85964
C         18.19953        40.49274        -1.70777
C         16.90249        39.74956        -1.85857
C         18.26814        41.87095        -1.54965
C         17.16634        42.78992        -1.76131
C         18.11951        44.58318        -0.40380
C         16.96685        44.00308        -1.13337
C         18.16816        46.05721        -0.26073
C         16.93157        46.75115        -0.32551
C         18.22636        48.87211        -0.21596
C         16.93281        48.16904        -0.20029
C         18.23856        50.37808         0.05696
C         16.95486        51.03289         0.35844
C         18.19639        53.02157         1.11529
C         16.97727        52.34974         0.83957
C         18.19709        54.40287         1.48209
C         20.78324         6.31060         2.50247
C         20.75632         7.73777         2.50076
C         19.53584         8.42761         2.34202
C         20.67768        10.61018         2.33436
C         19.47722         9.84422         2.18312
C         20.68049        11.99223         2.08560
C         19.48215        12.61899         1.67492
C         20.75134        14.76383         1.08712
C         19.47628        13.99522         1.14731
C         20.75015        16.23327         0.96744
C         19.43488        16.94941         1.08314
C         20.70788        18.96763         0.20335
C         19.44364        18.27502         0.37295
C         20.66966        20.35042        -0.26495
C         19.51267        20.93380        -0.70006
C         20.81649        23.04113        -1.37822
C         19.42979        22.30264        -1.36298
C         20.66399        24.55726        -1.37245
C         19.37645        25.14010        -1.94501
C         20.66160        27.34485        -2.25372
C         19.39834        26.65761        -1.90823
C         20.69319        28.82762        -2.06193
C         19.41957        29.56377        -2.14381
C         20.68399        31.68450        -2.53238
C         19.44962        30.98860        -2.33095
C         20.66325        33.16718        -2.76710
C         19.37751        33.93547        -2.63141
C         20.67333        36.13116        -2.59309
C         19.38239        35.38938        -2.32210
C         20.70445        37.55091        -2.08326
C         19.45059        38.24423        -1.93552
C         20.61705        40.27886        -1.28163
C         19.42835        39.68615        -1.64285
C         20.63161        41.63873        -0.70406
C         19.55991        42.57197        -1.20947
C         20.63777        44.52555         0.03238
C         19.37146        43.78970        -0.31797
C         20.70540        45.98452        -0.36039
C         19.40850        46.72255        -0.10158
C         20.69660        48.80961         0.29977
C         19.47271        48.12415         0.00866
C         20.70314        50.20710         0.57485
C         19.48248        50.97308         0.56378
C         20.68376        52.93586         1.43761
C         19.42920        52.28129         1.04580
C         20.66314        54.40365         1.70213
C         19.36829        55.13160         1.72212
C         20.58893        57.14954         2.48657
C         19.38680        56.47283         2.17066
C         20.61610        58.40876         3.09387
C         23.28363         3.51602         2.70088
C         22.05670         4.19321         2.52919
C         23.24030         6.37227         2.32626
C         21.99129         5.60030         2.48225
C         23.23671         7.81592         2.63694
C         21.97859         8.46825         2.68635
C         23.18473        10.71538         2.97749
C         21.89674         9.93488         2.82412
C         23.25459        12.10684         2.47801
C         21.94240        12.78200         2.24999
C         23.24232        14.82274         1.32676
C         21.95961        14.17641         1.72805
C         23.21852        16.27866         1.08713
C         21.93896        16.93597         0.87301
C         23.20823        18.98078         0.09132
C         21.90575        18.34234         0.50369
C         23.18558        20.49315         0.17575
C         21.88692        21.16652         0.00893
C         23.14904        23.39339        -0.39366
C         21.85302        22.62848        -0.34232
C         23.23051        24.64261        -1.16800
C         21.95224        25.31044        -1.44496
C         23.27854        27.34985        -2.12252
C         21.98232        26.63123        -2.11844
C         23.21607        28.77335        -2.56605
C         21.98692        29.56372        -2.21509
C         23.19782        31.69146        -2.61546
C         21.94148        31.01859        -2.51614
C         23.24890        33.17107        -2.71487
C         21.95245        33.94628        -2.71228
C         23.23624        36.09140        -2.45130
C         21.93565        35.34059        -2.25343
C         23.19942        37.50741        -1.89975
C         21.94548        38.18626        -1.87340
C         23.17653        40.36730        -1.24836
C         21.91062        39.63190        -1.54657
C         23.19051        41.64516        -0.49104
C         21.88938        42.27347        -0.18576
C         23.18619        44.47556         0.04171
C         21.90285        43.74890         0.10968
C         23.14209        45.91792         0.27140
C         21.94294        46.65748         0.18572
C         23.12653        48.69047         0.88549
C         21.92699        48.04914         0.45379
C         23.15474        50.12924         1.03181
C         21.94216        50.86206         0.90774
C         23.17263        52.95927         1.30967
C         21.97094        52.26810         1.14549
C         23.23427        54.46146         1.24490
C         21.91405        55.18927         1.47656
C         23.14799        57.15731         2.52136
C         21.88392        56.57959         2.03052
C         23.10487        58.40043         3.17364
C         21.84103        59.06221         3.41378
C         23.04817        60.93424         4.42491
C         21.84661        60.32719         4.03346
C         24.49277         4.17539         2.78183
C         25.76848         6.39327         2.79552
C         24.59600         5.59707         2.48133
C         25.73032         7.80006         2.76502
C         24.46057         8.49764         2.78994
C         25.75728        10.71172         3.01640
C         24.46758         9.94525         3.08503
C         25.74190        12.16238         2.67223
C         24.45746        12.77369         2.34590
C         25.70386        14.97069         1.89719
C         24.51499        14.12123         1.70369
C         25.63233        16.33747         1.64011
C         24.41996        16.98877         1.14904
C         25.60094        19.12320         0.72927
C         24.43118        18.38290         0.75634
C         25.63421        20.46208         0.19772
C         24.38155        21.17664         0.09058
C         25.69507        23.23804        -0.63770
C         24.44874        22.64090        -0.12317
C         25.66803        24.57565        -1.08816
C         24.44543        25.29015        -1.38266
C         25.77603        27.45782        -1.89367
C         24.45517        26.68531        -1.89181
C         25.77665        28.82198        -2.60963
C         24.49469        29.54535        -2.70643
C         25.66756        31.72937        -2.41699
C         24.43378        31.01614        -2.56937
C         25.66554        33.16158        -2.14469
C         24.48230        33.85349        -2.25848
C         25.66789        36.00057        -1.50678
C         24.39406        35.28130        -1.88592
C         25.67226        37.47587        -1.50721
C         24.44040        38.16373        -1.62240
C         25.73127        40.32870        -1.06782
C         24.46770        39.63654        -1.45041
C         25.66109        41.57645        -0.19941
C         24.36227        42.33972        -0.29767
C         25.65608        44.55347        -0.06774
C         24.36215        43.76346        -0.02167
C         25.55440        45.73565         0.87588
C         24.32435        46.55881         0.72444
C         25.52664        48.52053         1.63456
C         24.29861        47.90839         1.09379
C         25.56805        50.07381         1.64410
C         24.36864        50.82611         1.26100
C         25.63743        52.96369         1.56204
C         24.41603        52.25205         1.31468
C         25.62275        54.33966         1.96461
C         24.41087        55.07248         1.95662
C         25.57123        57.01715         2.93390
C         24.36223        56.41004         2.43970
C         25.53880        58.30694         3.48303
C         24.32243        59.00781         3.63679
C         24.26646        60.29033         4.24597
C         26.94734         8.53429         2.73416
C         28.17962        10.65616         2.63407
C         27.00347         9.95261         2.74801
C         28.27098        12.13727         2.89975
C         26.92702        12.87446         2.64526
C         28.00290        15.12758         2.65591
C         26.90283        14.32597         2.41500
C         28.13127        16.53525         2.24596
C         26.81333        17.19975         1.90224
C         28.14870        19.10857         0.80012
C         26.84742        18.56292         1.28170
C         28.09600        20.25446        -0.17000
C         26.84600        21.07011        -0.20556
C         28.12181        22.99317        -1.16952
C         26.87095        22.41236        -0.66896
C         28.20784        24.47214        -1.25158
C         26.94988        25.28022        -1.26715
C         28.15515        26.84137        -2.65985
C         26.97377        26.53007        -2.05718
C         28.22187        29.01561        -2.95710
C         26.91680        29.61808        -2.76500
C         28.16113        31.73922        -2.39371
C         26.87360        31.03594        -2.56052
C         28.11619        33.13717        -1.92960
C         26.93219        33.85039        -1.87619
C         28.14272        35.99235        -1.49871
C         26.95127        35.27995        -1.61543
C         28.15127        37.39849        -1.15723
C         26.92403        38.12977        -1.20801
C         28.14765        40.18444        -0.59322
C         26.96162        39.52522        -0.92340
C         28.15219        41.66489        -0.50485
C         26.91144        42.41837        -0.29543
C         28.15678        44.41177         0.46768
C         26.92448        43.74208         0.08031
C         28.13720        45.73214         1.01674
C         26.84696        46.39742         1.30486
C         28.01555        48.53094         1.98792
C         26.79769        47.82237         1.59495
C         28.09349        49.98627         1.86827
C         26.89357        50.70998         1.46293
C         28.17826        52.86966         1.90864
C         26.91859        52.26471         1.44533
C         28.20908        54.35570         2.19171
C         26.84504        54.99769         2.36041
C         26.80044        56.29200         2.82639
C         29.43653        12.70941         2.09402
C         30.80005        14.85501         1.72790
C         29.86231        13.98782         2.34593
C         30.64308        16.28014         1.62581
C         29.42485        17.04993         1.73571
C         30.63218        19.04254         0.71564
C         29.37584        18.20017         0.72961
C         30.64991        20.32138         0.15109
C         29.43253        20.85080        -0.52347
C         30.69500        23.00937        -0.88981
C         29.46527        22.24493        -1.05201
C         30.69204        24.49837        -1.09759
C         29.47429        25.02633        -1.77469
C         30.63920        27.14441        -2.33058
C         29.46890        26.31115        -2.31121
C         30.56278        28.61386        -2.07124
C         29.39861        29.47387        -2.43424
C         30.67486        31.55037        -1.66667
C         29.45824        30.93879        -2.24345
C         30.56026        32.98571        -1.20938
C         29.43210        33.80200        -1.84058
C         30.69187        35.98468        -1.22453
C         29.43587        35.30063        -1.68915
C         30.60506        37.34502        -0.63903
C         29.36738        38.06527        -0.77243
C         30.57509        40.11931        -0.03215
C         29.36748        39.46066        -0.47446
C         30.60129        41.52319         0.20467
C         29.45169        42.36462        -0.13467
C         30.60121        44.33469         0.85563
C         29.38684        43.71818         0.43325
C         30.58460        45.72418         1.16519
C         29.34006        46.38592         1.32232
C         30.60490        48.54512         1.77245
C         29.35979        47.75575         1.88256
C         30.55021        49.94190         1.95918
C         29.32491        50.66245         1.95615
C         29.30768        52.11421         2.05013
C         31.83394        16.99039         1.29004
C         33.06339        19.13393         1.07560
C         31.88109        18.39779         1.06505
C         33.00594        20.63413         1.00537
C         31.83254        21.11494         0.18235
C         33.12059        23.16962        -0.46098
C         31.85655        22.42885        -0.35921
C         33.18727        24.36551        -1.15186
C         31.97409        24.99784        -1.71066
C         33.17911        27.25561        -1.90209
C         31.94772        26.47371        -2.18926
C         33.10801        28.58617        -1.59884
C         31.81358        29.32790        -1.59819
C         33.08758        31.50868        -1.17268
C         31.83232        30.83115        -1.52020
C         33.05607        32.97395        -0.99664
C         31.88985        33.68065        -1.14595
C         33.01691        35.71578        -0.16641
C         31.91720        35.15899        -1.00792
C         32.94386        37.13593         0.27763
C         31.74435        37.94398        -0.09631
C         32.89928        39.96526         0.78522
C         31.75249        39.34165         0.20720
C         32.76753        41.28042         1.21180
C         31.72126        42.14529         0.80129
C         33.07041        44.30767         1.03126
C         31.82301        43.58622         0.93919
C         33.02722        45.71674         1.16273
C         31.82510        46.43690         1.32479
C         31.80448        47.84351         1.54055
C         34.30021        21.26972         0.58726
C         35.61024        23.16016        -0.25892
C         34.35515        22.50440        -0.03705
C         35.70089        24.41962        -0.87109
C         34.47607        24.99455        -1.45614
C         35.70227        27.22696        -1.49866
C         34.47177        26.51077        -1.81552
C         35.62929        28.69605        -1.42329
C         34.29516        29.28684        -0.96459
C         35.51407        31.50292        -0.67449
C         34.26215        30.80026        -1.06710
C         35.55800        32.97976        -0.88317
C         34.29205        33.70805        -0.71813
C         35.55251        35.78245        -0.14612
C         34.31815        35.03005        -0.34144
C         35.50967        37.14385         0.26655
C         34.24383        37.80826         0.64739
C         35.51926        40.05033         0.74679
C         34.23142        39.29334         0.95488
C         35.62585        41.47626         0.64002
C         34.64888        42.37271         1.11780
C         34.36583        43.69871         0.79216
C         36.90167        25.15555        -0.95567
C         38.14404        27.30319        -1.05589
C         36.90921        26.55196        -1.23368
C         38.17650        28.67418        -0.98849
C         36.90381        29.42172        -1.13455
C         38.11429        31.53967        -0.40499
C         36.81747        30.78628        -0.53786
C         38.11584        33.02602        -0.47657
C         36.83770        33.74279        -0.77387
C         38.04331        35.84627        -0.14528
C         36.79526        35.16050        -0.37334
C         37.96527        37.22826         0.19488
C         36.72765        37.88095         0.36859
C         36.68139        39.30555         0.54741
C         39.39130        29.44807        -0.79911
C         40.59492        31.61605        -0.46920
C         39.38721        30.80762        -0.60705
C         40.59865        32.97182        -0.49156
C         39.37162        33.78452        -0.84907
C         39.28131        35.18597        -0.29183
O         18.44840        43.74598         0.79313
O         20.73893        53.47321         2.83507
O         17.31903        27.09059         0.36816
O         21.48994        29.22614        -0.87846
O         21.32297        26.76264        -3.42578
O         11.69734        25.89557        -1.98834
O         22.32072        10.49629         4.13422
O         36.28951        33.39833        -2.09476
O         29.66154        34.65543        -2.98929
O         30.85980        28.80271        -0.60286
O         14.21938        35.03592        -3.14259
O         29.10020        14.65689         3.35604
O         14.36648        40.11699         0.80643
O         34.63774        25.46759        -2.81989
O         29.10181        31.60829        -3.52370
O         16.15049        42.32376        -2.60778
O         19.92344        33.59569        -3.97168
O         21.16114        44.16077         1.32557
O         20.96944        41.56575         0.71818
O          7.95099        33.87969         2.07094
O         25.27847        40.38135        -2.45036
O         19.08170        22.08481        -2.74079
O         21.49908        22.22877         0.98822
O         20.29883        14.06551        -0.11936
O         28.68432        47.92088         3.15161
O         16.67543        38.99456        -3.10067
O         27.64793        19.50289         2.09570
O         22.73068        33.71203        -3.97965
O         21.77935        56.30984         0.55964
O         27.79281        25.21025        -0.02662
O         32.62473        36.02724         1.20747
O         18.34535        49.85699        -1.30780
O         14.68830        22.17758         1.63664
O         36.32866        29.40364        -2.49933
O         13.89477        24.58063        -2.04289
O         22.54531        40.51787        -2.58621
O         24.01120         5.99478         1.17593
O         23.81568        23.46767         0.89977
O         28.18380        27.81208        -3.65294
O         17.15195        33.42743        -3.49814
O         33.74967        41.79612         2.04604
O         25.38769        49.32736         2.86882
O         25.99042        45.55756         2.22786
O         24.00463        14.07721         0.31491
O         28.74161        19.93395        -1.44820
O         23.70790        29.04327        -3.89882
O         29.00726        42.27042        -1.53354
O         24.71157        35.47688        -0.48207
O         10.89820        28.77153         1.66832
O         38.15484        32.38010         0.81469
O         15.70759        37.56176         0.18746
O         25.18700        10.34373         4.31498
O         31.74974        35.91143        -2.25605
O         21.78713        13.95638         3.15727
O         28.76276        22.38342        -2.32993
O         32.03897        25.31871        -3.10595
O         25.79444        41.15636         1.14433
O         11.07707        31.41480         1.99460
O         16.95660        20.79484         1.42068
O         27.02577        51.45571         0.21972
O         27.32160        17.29290         3.26815
O         35.97408        30.97848         0.64528
O         34.26758        38.31426         2.03249
O         23.61009        54.70485        -0.23020
O         21.11018        25.26568        -0.20230
O         20.84560        45.97316        -1.81656
H         20.83459        46.90087        -2.13407
O         16.34822        31.82873         0.30752
H         16.35639        30.91195         0.66086
O         17.74016        19.94924        -2.02178
H         18.13896        20.68383        -2.58483
O         28.89541        55.02338         1.11341
H         28.39537        54.86090         0.28680
O         19.22539        24.72747        -3.31746
H         19.09416        23.72802        -3.31049
O         25.91740        27.91716        -0.49738
H         25.98706        27.12526         0.08105
O         23.52410        36.25177        -3.86851
H         22.65898        36.41021        -4.32102
O         30.69475        25.09075         0.25587
H         29.76072        25.18245         0.55664
O         39.36091        33.90732        -2.30682
H         40.09769        34.49693        -2.57030
O         23.33782        18.66252        -1.34302
H         24.18093        19.04714        -1.66465
O         13.45858        48.87663        -0.90493
H         13.79167        48.83598        -1.82475
O         19.30426        17.24935         2.52407
H         18.66498        17.98794         2.62211
O         22.48490        54.30301        -1.02945
H         21.99459        55.15582        -1.15194
O         21.46112        22.69446        -2.62222
H         20.71598        22.32739        -3.18658
O         32.75289        21.11042         2.39350
H         31.92707        20.68130         2.70505
O         16.59352        29.44780        -3.47513
H         17.21028        30.02551        -3.97498
O         28.56681        12.24543         4.31737
H         28.74887        13.19651         4.50200
O         30.10422        32.89515         0.19033
H         30.74667        32.34993         0.69416
O         29.28268        17.50079        -0.55764
H         29.23889        18.20047        -1.25982
O         34.18230        28.97320         0.45487
H         34.77642        29.59997         0.94086
O         10.21488        28.03955        -1.80428
H         10.33722        27.29589        -2.43927
O         20.76394        36.22963        -4.06572
H         20.56676        35.31835        -4.41317
O         25.72823        45.17124        -1.39424
H         25.80529        44.45663        -2.06195
O         12.47071        36.56032        -2.46644
H         12.94840        36.04791        -3.20333
O         20.08138        43.12627        -2.45435
H         20.29128        42.38628        -3.06381
H          5.33147        31.15152         1.10297
H          4.94196        33.45919         0.68372
H          7.52291        27.04982         0.70069
H          6.44371        29.24552         1.05488
H          6.47902        35.67942        -0.34908
H          7.53991        37.89260         0.18323
H         10.01744        22.82287         0.81034
H          8.78765        24.92348         0.72678
H          8.72459        40.06799         0.23854
H          9.88637        42.22833         0.16252
H         12.37935        18.47768         0.61176
H         11.18832        20.65172         0.72232
H         11.09604        44.47625        -0.15287
H         12.31054        46.58752        -0.25689
H         14.80400        14.12407         0.93626
H         13.56299        16.30117         0.64056
H         13.99912        48.31059         0.99054
H         14.79699        50.81081         0.31635
H         17.33638         9.92712         1.81036
H         16.09862        12.00371         1.28821
H         16.02696        52.88045         1.00060
H         17.22781        54.91988         1.54846
H         19.83113         5.76030         2.47104
H         18.60653         7.84700         2.24558
H         18.42948        56.98511         2.35127
H         19.66883        58.89877         3.36514
H         23.25839         2.43001         2.87035
H         21.11963         3.61967         2.55985
H         23.02105        61.92438         4.90097
H         20.89104        60.83826         4.21887
H         25.39374         3.64236         3.11783
H         26.71510         5.88404         3.03006
H         26.47471        58.76794         3.83212
H         25.19865        60.76438         4.58463
H         27.89131         7.97438         2.65403
H         29.12349        10.10954         2.48326
H         28.82104        54.54533         3.11150
H         27.73339        56.79161         3.12684
H         29.91733        12.09864         1.31751
H         31.69435        14.42336         1.25452
H         31.49207        50.51025         1.96894
H         30.24725        52.61263         2.33415
H         32.78598        16.43743         1.30850
H         34.01952        18.63803         1.29973
H         33.97948        46.26662         1.20011
H         32.75665        48.39511         1.54885
H         35.23866        20.77848         0.88827
H         36.52591        22.68161         0.12023
H         36.52458        41.87999         0.14868
H         35.13202        44.31570         0.29899
H         37.83731        24.68490        -0.61824
H         39.07509        26.73142        -0.92453
H         38.89461        37.80649         0.30408
H         37.63510        39.84938         0.46617
H         40.35198        28.91410        -0.86216
H         41.54592        31.07782        -0.33033
H         41.55443        33.50743        -0.37698
H         40.20860        35.75794        -0.12982
