         480
 CSIRO Nanostructure Databank - Neutral Graphene Oxide Data Set
C         37.73970        50.35157         0.79409
C         36.70228        51.10904         1.34303
C         37.93855        53.12928         0.86840
C         36.80399        52.50032         1.37897
C         40.06457        48.70105        -0.10731
C         40.00150        50.18141        -0.39082
C         38.88824        50.96875         0.28407
C         40.20437        53.05937        -0.19956
C         38.99286        52.38404         0.30892
C         40.26228        54.44714        -0.40726
C         42.51074        48.58367        -0.41189
C         41.21703        47.98312        -0.20328
C         42.59132        50.04718        -0.25161
C         41.33269        50.85570        -0.12246
C         42.59438        52.92277        -0.80687
C         41.38405        52.30768        -0.40352
C         42.61082        54.32226        -1.06183
C         41.43888        55.05676        -0.85451
C         44.92918        45.76220        -0.89898
C         43.73792        46.43450        -0.76825
C         44.96119        48.56732        -0.71492
C         43.70030        47.86085        -0.62395
C         44.98112        49.96901        -0.82697
C         43.81216        50.74703        -0.68177
C         45.05657        52.80879        -1.16837
C         43.80815        52.13534        -0.94609
C         45.15814        54.26697        -1.57126
C         43.77753        54.92517        -1.83255
C         44.98658        57.10276        -1.40561
C         43.87349        56.42539        -1.75758
C         47.43801        44.26747        -0.39803
C         47.48337        45.66332        -0.98634
C         46.18696        46.43622        -0.82834
C         47.45113        48.55659        -0.55131
C         46.20085        47.82354        -0.74808
C         47.44018        49.93295        -0.60230
C         46.26712        50.64422        -1.21196
C         47.49160        52.85374        -0.80912
C         46.25150        52.13156        -1.00148
C         47.46542        54.30358        -0.67108
C         46.10452        54.99323        -0.59432
C         47.36110        57.16294        -0.65814
C         46.20077        56.47066        -0.91703
C         47.50387        58.56373        -1.00247
C         49.88341        44.21149        -0.45457
C         48.56664        43.56212        -0.24058
C         49.88574        45.69579        -0.30153
C         48.72439        46.40280        -0.49444
C         49.86863        48.54838        -0.05236
C         48.70042        47.84584        -0.33218
C         49.85301        49.98215         0.23361
C         48.57102        50.72039        -0.12515
C         49.93900        52.81547        -0.39294
C         48.64147        52.14957        -0.46469
C         49.91353        54.34201        -0.39737
C         48.60387        55.00846        -0.38453
C         49.82240        57.20020         0.11212
C         48.48230        56.44128         0.09382
C         49.86098        58.65941        -0.24387
C         48.64139        59.26947        -0.81715
C         52.32867        41.35598         0.35022
C         51.18240        41.99710        -0.04528
C         52.36370        44.16978         0.24977
C         51.17276        43.44485        -0.32366
C         52.34310        45.64853         0.44119
C         51.18255        46.39064        -0.13629
C         52.33349        48.59968         0.56977
C         51.18290        47.89574        -0.04415
C         52.33058        50.00483         0.64863
C         51.13384        50.72764         0.29960
C         52.33760        52.85836         0.34464
C         51.14054        52.11136         0.12148
C         52.33114        54.30761         0.24723
C         51.12948        55.04546         0.05354
C         52.33994        57.15979         0.10995
C         51.11064        56.45015         0.10147
C         52.39664        58.61216        -0.09132
C         51.17348        59.36256        -0.58221
C         52.34331        61.42487         0.13838
C         51.18661        60.77200        -0.01953
C         54.86475        39.87591         0.70881
C         54.80924        41.29691         0.64841
C         53.59042        42.00436         0.47117
C         54.85616        44.16590         0.81600
C         53.69837        43.46931         0.12249
C         54.67530        45.54492         1.43848
C         53.59172        46.37667         0.75376
C         54.72035        48.59387         1.52832
C         53.46477        47.80631         1.06663
C         54.76736        50.05783         1.25209
C         53.53057        50.75666         0.94536
C         54.71582        52.95190         1.05637
C         53.50314        52.16453         0.77744
C         54.78891        54.35034         0.61838
C         53.55105        55.03810         0.35365
C         54.84016        57.18595        -0.02157
C         53.54524        56.43861         0.18825
C         54.75829        58.56163         0.62574
C         53.56425        59.29479         0.05919
C         54.88234        61.46300         0.19581
C         53.63554        60.76296        -0.30894
C         54.97197        62.87316        -0.05466
C         57.30382        39.89975         0.63060
C         56.06858        39.20512         0.70825
C         57.26183        41.31876         0.64143
C         56.04526        42.02499         0.69213
C         57.28234        44.13032         1.48147
C         56.02793        43.47338         0.91588
C         57.28417        45.63526         1.28788
C         56.00637        46.31307         1.59482
C         57.31888        48.54161         1.59252
C         56.00622        47.81638         1.69479
C         57.28929        50.04822         1.43599
C         55.98841        50.72462         1.24897
C         57.28789        52.89773         0.90839
C         56.03706        52.19649         1.25059
C         57.26000        54.26081         0.67327
C         56.02653        55.00264         0.58003
C         57.24144        57.15848         0.55922
C         56.07868        56.44314         0.40224
C         57.25929        58.61390         0.60932
C         56.06348        59.31884         0.55184
C         57.20757        61.48120         1.07118
C         56.01301        60.75653         0.59357
C         57.25804        62.99911         0.85407
C         56.11534        63.58814         0.15154
C         59.79918        37.05476         0.51948
C         58.59950        37.75410         0.61827
C         59.80879        39.85191         0.53733
C         58.57048        39.16553         0.58538
C         59.81621        41.31971         0.43103
C         58.50355        42.10588         0.51572
C         59.74663        44.22481         0.92547
C         58.54329        43.49155         0.95743
C         59.73141        45.62794         1.07186
C         58.49222        46.35457         1.19203
C         59.76620        48.52927         1.11751
C         58.53619        47.79811         1.25259
C         59.74962        50.00160         1.02102
C         58.53717        50.73739         1.02869
C         59.75324        52.83295         0.62867
C         58.52842        52.14102         0.82617
C         59.78015        54.28337         0.43224
C         58.47578        54.99403         0.14138
C         59.68402        57.23344         0.08084
C         58.54908        56.42917         0.73092
C         59.74159        58.65270         0.63365
C         58.53280        59.30416         0.79431
C         59.80682        61.50159         1.23959
C         58.49580        60.72204         1.22670
C         59.76124        62.97417         1.03747
C         58.58672        63.67563         0.83576
C         59.81568        65.80358         0.65917
C         58.63309        65.10095         0.66112
C         62.38486        35.52377         0.27139
C         62.27556        36.98509         0.10965
C         61.02619        37.72222         0.42025
C         62.30596        39.85674         0.48011
C         61.04986        39.14698         0.48889
C         62.33177        41.29191         0.76965
C         61.03175        42.04884         0.85049
C         62.22128        44.19135         0.61784
C         61.03469        43.52993         0.74456
C         62.20483        45.66958         0.55684
C         61.03802        46.34639         1.26659
C         62.26967        48.51809         1.09106
C         60.97301        47.82665         1.00862
C         62.25309        50.02272         1.04058
C         60.96504        50.72130         0.85017
C         62.23935        52.87711         0.35583
C         60.96201        52.11340         0.64359
C         62.20707        54.29450         0.97470
C         60.94417        54.99248         0.49795
C         62.26804        57.19861         0.34391
C         60.99352        56.44708         0.17346
C         62.24114        58.66951         0.53468
C         61.00903        59.36391         0.68822
C         62.26573        61.46902         0.70496
C         61.04884        60.77232         0.88531
C         62.34441        62.93119         0.95285
C         61.03838        63.70883         1.11228
C         62.30736        65.83370         0.78410
C         61.06613        65.15421         0.84427
C         62.36000        67.26321         0.80670
C         64.83063        35.59460        -0.06944
C         63.56924        34.89384         0.07341
C         64.86081        37.02278         0.18135
C         63.57792        37.75666         0.08148
C         64.76280        39.91335         0.50369
C         63.55198        39.20406         0.37975
C         64.76794        41.34731         0.48980
C         63.56512        42.04033         0.54645
C         64.78882        44.23901         0.45756
C         63.49615        43.49571         0.16948
C         64.78949        45.62697         0.46779
C         63.51536        46.39232         0.45470
C         64.74309        48.52379         0.73607
C         63.54051        47.83192         0.77673
C         64.77501        49.98917         0.79098
C         63.52188        50.73516         0.77748
C         64.74100        52.85771         0.83533
C         63.48720        52.10435         0.70331
C         64.75420        54.35964         0.86684
C         63.48763        55.07634         0.72202
C         64.76051        57.17445         0.58577
C         63.52669        56.45751         0.62098
C         64.76740        58.66208         0.80372
C         63.46131        59.36248         0.49174
C         64.68043        61.49898        -0.06661
C         63.46198        60.77248         0.45874
C         64.74222        62.96316         0.29267
C         63.57382        63.67066         0.60148
C         64.75323        65.83366         0.47335
C         63.55461        65.11398         0.66035
C         64.77442        67.26472         0.43605
C         63.53709        67.94810         0.66700
C         67.19436        32.96879        -1.28812
C         66.03055        33.57935        -0.90035
C         67.31733        35.55806        -0.15149
C         66.01494        34.90909        -0.37265
C         67.32792        37.03144         0.28431
C         66.03442        37.72357         0.33991
C         67.29059        39.94570         0.40496
C         66.04272        39.17114         0.77404
C         67.26113        41.33200         0.42234
C         66.02908        42.08271         0.45730
C         67.28860        44.22197         0.38122
C         66.02617        43.49061         0.47913
C         67.28447        45.68102         0.39830
C         66.02628        46.38189         0.51895
C         67.24021        48.53670         0.69227
C         65.97905        47.78293         0.58847
C         67.21696        49.97181         0.29278
C         65.95684        50.67941         0.53625
C         67.28306        52.91458         0.41495
C         65.96646        52.13844         0.39105
C         67.24463        54.37897         0.66558
C         66.02528        55.07036         0.63502
C         67.23607        57.20856         0.38881
C         65.99847        56.49561         0.56689
C         67.22178        58.64708         0.20684
C         66.00474        59.36474         0.28058
C         67.20102        61.48075        -0.05400
C         65.99037        60.76460         0.12706
C         67.19844        62.92581        -0.06755
C         65.99405        63.62412         0.18889
C         67.28051        65.80991        -0.01217
C         66.01897        65.07821         0.40127
C         67.12654        67.23326        -0.41945
C         65.95366        67.98550         0.07457
C         67.16645        70.07721        -0.41857
C         66.01718        69.39217        -0.03981
C         69.66493        31.69716        -2.27608
C         69.67355        33.00785        -1.73024
C         68.46702        33.64102        -1.25245
C         69.74054        35.69013        -0.76611
C         68.52514        34.95526        -0.75255
C         69.73038        37.14624        -0.50577
C         68.54224        37.83875         0.03999
C         69.78708        39.97239         0.12470
C         68.53959        39.22088         0.21340
C         69.79016        41.35195         0.17076
C         68.55209        42.08464         0.63418
C         69.72556        44.24460        -0.20269
C         68.48258        43.53889         0.26602
C         69.75692        45.70510         0.18164
C         68.51694        46.36913         0.38997
C         69.81146        48.57732         0.39788
C         68.55712        47.81972         0.63928
C         69.81738        49.98944         0.43253
C         68.54641        50.73482         0.23709
C         69.74351        52.82649         0.93634
C         68.52199        52.16350         0.52328
C         69.72750        54.41454         0.94460
C         68.46390        55.10500         0.64913
C         69.74228        57.13387        -0.04086
C         68.44688        56.49649         0.40129
C         69.69324        58.64763        -0.08057
C         68.44798        59.34733        -0.03055
C         69.66390        61.47352        -0.36836
C         68.43681        60.76885        -0.14303
C         69.65395        62.90031        -0.50379
C         68.43431        63.62957        -0.31823
C         69.64254        65.72925        -0.81425
C         68.45415        65.03856        -0.45892
C         69.63367        67.19083        -1.05103
C         68.36150        67.96605        -0.87339
C         69.62134        70.13416        -0.82853
C         68.40431        69.43672        -0.70999
C         69.66550        71.55757        -0.95086
C         72.05849        31.77749        -2.60723
C         70.83198        31.09192        -2.70363
C         72.09777        33.05613        -2.08399
C         70.91684        33.70312        -1.63100
C         72.20041        35.72861        -0.87684
C         70.94492        35.05670        -1.13265
C         72.26644        37.01864        -0.46019
C         71.06684        37.86555        -0.44814
C         72.29713        40.02309        -0.09762
C         71.09186        39.20424         0.26632
C         72.25946        41.36914        -0.12042
C         71.02156        42.10563         0.06847
C         72.20911        44.26772         0.15319
C         71.01224        43.50164         0.07105
C         72.19875        45.64228         0.17962
C         70.98103        46.39530         0.21622
C         72.23353        48.58416         0.31235
C         71.02236        47.85285         0.31595
C         72.24153        49.96378         0.44668
C         71.03904        50.70477         0.50633
C         72.17865        52.92985         0.65986
C         71.03815        52.15898         0.69017
C         72.16419        54.36350         0.71099
C         71.01233        55.10114         0.75047
C         72.20380        57.30751         0.22208
C         70.96502        56.62382         0.75538
C         72.14446        58.56920        -0.24611
C         70.89430        59.33030        -0.27392
C         72.08723        61.48411        -0.71372
C         70.89023        60.75765        -0.45290
C         72.07574        62.85007        -0.86034
C         70.87077        63.60130        -0.73976
C         72.10787        65.78424        -0.78332
C         70.87075        65.03483        -0.85569
C         72.14785        67.14092        -0.75068
C         70.94579        67.94052        -1.03482
C         72.10639        70.16034        -1.28109
C         70.95228        69.41666        -0.65806
C         72.04793        71.49813        -1.48718
C         70.82965        72.22369        -1.25071
O         61.84934        63.30358         2.28088
O         62.86388        37.44806        -1.16685
O         67.52171        35.95272         1.25951
O         50.20948        53.58694        -1.62604
O         66.53293        52.62651        -0.85656
O         56.92402        62.40638         2.15536
O         53.74504        48.17492         2.50161
O         61.62142        41.59018         2.09581
O         42.04015        50.47114         1.08158
O         59.20882        41.86209        -0.77298
O         70.31209        67.60511        -2.29647
O         61.80969        56.77335        -1.02155
O         48.91571        50.41653         1.28287
O         64.83544        53.53178         2.14723
O         69.65643        53.60996         2.16100
O         70.30254        37.88357        -1.67471
O         51.55133        47.19667        -1.30589
O         66.99938        65.56654         1.40218
O         67.84581        50.26816        -0.99062
O         62.61912        46.16176        -0.75805
O         62.34790        49.33336         2.33648
O         51.98776        44.70046         1.55119
O         49.78773        58.24902         1.16112
O         56.02764        47.00027         2.90963
O         50.65838        43.79938        -1.65122
O         67.35779        67.48880        -1.84461
O         67.96303        48.24581         1.93783
O         57.45663        49.43057         2.76450
O         55.29931        52.75447         2.38724
O         59.18511        61.00414         2.47589
O         54.51135        58.34439         2.04256
H         54.50923        59.21418         2.49422
O         63.39540        43.50674        -1.30343
H         63.18130        44.43994        -1.55459
O         53.68937        60.86375        -1.76041
H         52.85597        60.45686        -2.10811
O         58.24913        55.03209        -1.28919
H         58.69183        55.84482        -1.64670
O         69.63103        44.24129        -1.68571
H         68.82163        44.74030        -1.92849
O         71.20943        38.87726         1.69021
H         71.30623        39.71888         2.18397
O         66.11810        39.08997         2.25565
H         65.94882        39.99019         2.60820
O         39.79428        50.32712        -1.83498
H         38.91547        49.95103        -2.05154
O         43.42050        54.63497        -3.22923
H         43.03312        53.73413        -3.26131
O         51.26437        59.46911        -2.03742
H         51.48180        58.58237        -2.39543
O         71.19635        69.40736         0.79406
H         71.28114        70.34081         1.08336
O         70.81311        57.00576         2.14372
H         70.81772        57.98500         2.18961
O         58.87887        56.33835         2.13081
H         58.13493        55.91029         2.60395
O         45.87909        54.29763        -2.82847
H         45.19852        54.38767        -3.53975
O         59.38046        57.40387        -1.33257
H         60.25795        57.46457        -1.78620
O         54.22314        45.25775         2.79177
H         54.14531        46.13076         3.24611
O         62.10340        54.16542         2.41197
H         62.98840        53.87433         2.74339
O         45.60597        54.86201         0.75185
H         46.26339        55.30054         1.34307
O         47.65986        45.49829        -2.42708
H         48.52698        45.06132        -2.57323
O         69.95795        56.67307        -1.40983
H         69.23902        57.03463        -1.96911
O         64.87389        58.79875         2.27128
H         64.88912        59.75605         2.48588
O         46.38476        50.47711        -2.67868
H         47.06426        51.11070        -2.99451
O         53.99804        43.52962        -1.31333
H         54.78884        42.97416        -1.48145
O         54.96452        57.39681        -1.46036
H         55.27603        56.55974        -1.86439
O         64.47194        61.50587        -1.53157
H         64.52981        60.57775        -1.84420
O         62.31203        53.08402        -1.08539
H         62.26897        52.21229        -1.53068
O         57.24476        43.92204         2.93308
H         56.44141        44.37886         3.27208
O         68.70645        42.10074         2.11475
H         68.61220        41.17353         2.42476
O         61.38388        46.20157         2.68811
H         60.69842        46.66439         3.21647
O         48.03022        56.35017         1.48139
H         48.33086        57.18167         1.92018
H         37.64498        49.25684         0.77571
H         35.81179        50.60742         1.74602
H         38.00627        54.22454         0.92041
H         35.99403        53.10172         1.81434
H         39.12269        48.15542         0.05444
H         39.37462        55.07343        -0.24451
H         41.16139        46.88913        -0.09572
H         41.43019        56.13846        -1.04624
H         44.90616        44.67334        -1.04447
H         42.79647        45.86820        -0.79161
H         44.95454        58.20131        -1.45772
H         43.00385        56.99537        -2.11822
H         46.46831        43.79082        -0.19398
H         46.65365        59.06875        -1.48199
H         48.53156        42.51939         0.10844
H         48.70120        60.31316        -1.15767
H         52.27317        40.27327         0.53479
H         50.26819        41.41274        -0.22011
H         52.36347        62.44682         0.54621
H         50.23069        61.23403         0.26930
H         53.93453        39.29315         0.72769
H         54.12326        63.35663        -0.55919
H         56.05057        38.10842         0.73812
H         56.18844        64.61189        -0.24071
H         59.76699        35.95738         0.48345
H         57.66908        37.17574         0.67713
H         59.78254        66.88966         0.49937
H         57.69242        65.65200         0.53280
H         61.48608        34.93448         0.50047
H         61.43454        67.83217         0.96705
H         63.59689        33.79632         0.13147
H         63.51941        69.04513         0.70301
H         67.13843        31.94439        -1.67875
H         65.08152        33.03778        -1.01643
H         67.12759        71.17497        -0.39548
H         65.13916        69.99482         0.23088
H         68.72060        31.14424        -2.36654
H         68.73028        72.13264        -0.89947
H         72.98301        31.29676        -2.95568
H         70.80374        30.07658        -3.12256
H         73.06275        33.57803        -2.03683
H         73.12903        35.14290        -0.91681
H         73.22280        37.43753        -0.11652
H         73.24864        39.50142        -0.27593
H         73.17780        41.92367        -0.35774
H         73.17553        43.75526         0.25595
H         73.16026        46.16647         0.25271
H         73.19702        48.06372         0.23670
H         73.20800        50.48318         0.49419
H         73.15734        52.45115         0.51580
H         73.13809        54.86699         0.63566
H         73.17988        56.80727         0.29906
H         73.07158        59.05930        -0.57421
H         73.04196        60.95196        -0.81437
H         73.02001        63.36292        -1.08508
H         73.04219        65.23239        -0.61134
H         73.08963        67.65790        -0.51758
H         73.03641        69.60829        -1.47983
H         72.92195        72.04154        -1.87402
H         70.81928        73.31286        -1.39215
