         640
 CSIRO Nanostructure Databank - Neutral Graphene Oxide Data Set
C         22.94974        27.35191        -0.47402
C         22.94917        28.74335        -0.50865
C         22.93610        31.69087        -0.44247
C         22.94158        33.07781        -0.34528
C         23.06705        36.03440        -0.65152
C         23.14544        37.37842        -0.74606
C         23.08268        40.31316        -0.40310
C         23.08264        41.70576        -0.36024
C         23.03585        44.66468        -0.02039
C         23.03152        46.03488         0.14528
C         25.38512        24.50320        -0.40313
C         24.18965        25.19383        -0.45161
C         25.39363        27.31024        -0.23021
C         24.17095        26.61253        -0.36341
C         25.35656        28.76529         0.14811
C         24.11740        29.49849        -0.30389
C         25.35047        31.65084        -0.07995
C         24.12694        30.93993        -0.28667
C         25.35311        33.08035        -0.01154
C         24.12947        33.79188        -0.13278
C         25.41425        35.96383         0.19089
C         24.06966        35.27344         0.17261
C         25.43412        37.39542         0.16329
C         24.27278        38.11624        -0.20820
C         25.44659        40.23897         0.22384
C         24.25698        39.54984        -0.12421
C         25.38832        41.69249         0.60997
C         24.20446        42.44251         0.04802
C         25.42037        44.52327         0.54800
C         24.21168        43.87149         0.17852
C         25.38719        45.94702         0.87624
C         24.19110        46.73326         0.57523
C         25.46521        48.82305         0.76511
C         24.25174        48.13380         0.66998
C         27.98154        23.08597        -0.24707
C         27.89080        24.48326        -0.39248
C         26.62465        25.18908        -0.34565
C         27.86965        27.34350        -0.30181
C         26.62505        26.61361        -0.28701
C         27.85440        28.77592        -0.21152
C         26.63705        29.49609        -0.13133
C         27.80705        31.62968         0.07263
C         26.60540        30.92133        -0.04506
C         27.79189        33.03215         0.49298
C         26.56316        33.80673         0.29110
C         27.83054        35.93791         0.92293
C         26.58733        35.21885         0.40184
C         27.87818        37.40798         0.58852
C         26.67199        38.10688         0.37810
C         27.90633        40.25028         0.47292
C         26.66885        39.53775         0.36113
C         27.91455        41.68967         0.41425
C         26.69156        42.42059         0.43231
C         27.90789        44.57307         0.47669
C         26.67774        43.83614         0.51961
C         27.96142        45.96360         0.61803
C         26.74564        46.71991         0.95551
C         27.96279        48.85643         0.58313
C         26.71511        48.17296         0.75117
C         28.02040        50.27919         0.51170
C         30.35785        23.05360        -0.78230
C         29.20739        22.40061        -0.37868
C         30.30889        24.50242        -0.94173
C         29.08406        25.23301        -0.61025
C         30.35493        27.36697        -0.47558
C         29.09646        26.64900        -0.50986
C         30.33172        28.79355        -0.30412
C         29.10251        29.47798        -0.24989
C         30.39695        31.68619         0.00923
C         29.06800        30.94292        -0.20623
C         30.39468        33.09467         0.44133
C         29.12889        33.79220         0.65376
C         30.35163        35.93989         0.60331
C         29.13436        35.24465         0.62218
C         30.36431        37.38757         0.61675
C         29.11506        38.09916         0.58844
C         30.37367        40.23868         0.49446
C         29.12865        39.53366         0.51430
C         30.37506        41.66757         0.39434
C         29.14822        42.37507         0.34142
C         30.42078        44.55317         0.32170
C         29.13649        43.84224         0.00381
C         30.42627        45.96612         0.39966
C         29.18641        46.69235         0.48274
C         30.44247        48.82536         0.49847
C         29.19551        48.11984         0.53206
C         30.46505        50.25686         0.47361
C         29.21568        50.95206         0.45745
C         32.80191        20.23075        -0.65259
C         31.65112        20.88790        -0.90690
C         32.87598        23.08377        -0.63997
C         31.64706        22.36336        -1.19383
C         32.88187        24.48659        -0.54243
C         31.66206        25.27055        -0.85223
C         32.82061        27.36505        -0.20385
C         31.59253        26.68527        -0.48480
C         32.81614        28.75390        -0.00502
C         31.58167        29.49752        -0.09149
C         32.81857        31.53238         0.62338
C         31.59099        30.86907         0.16202
C         32.81554        33.02369         0.85104
C         31.57965        33.79535         0.60392
C         32.84612        35.93424         0.67737
C         31.60043        35.22594         0.65384
C         32.84351        37.36439         0.60325
C         31.59396        38.08270         0.59255
C         32.84043        40.22705         0.48334
C         31.60620        39.52103         0.53154
C         32.84313        41.65793         0.40769
C         31.62094        42.37720         0.36256
C         32.87014        44.52221         0.38265
C         31.62988        43.82090         0.34852
C         32.88720        45.94719         0.41443
C         31.66466        46.67327         0.44552
C         32.91950        48.80108         0.51777
C         31.67873        48.10466         0.48522
C         32.93946        50.23792         0.58915
C         31.70284        50.95617         0.49449
C         32.91131        53.08392         0.51726
C         31.76779        52.39219         0.31923
C         35.43125        18.96511        -1.36841
C         35.30973        20.14026        -0.49456
C         34.05512        20.93799        -0.51398
C         35.39618        23.05645        -0.26713
C         34.07480        22.32055        -0.41710
C         35.22561        24.44044         0.41660
C         34.04802        25.21081        -0.14593
C         35.30140        27.32017         0.07937
C         34.05739        26.61372        -0.08936
C         35.32252        28.73021         0.06667
C         34.06998        29.46709         0.13154
C         35.29476        31.64484        -0.00516
C         34.08590        30.82971         0.36101
C         35.38589        33.01708         0.63356
C         34.11398        33.77190         0.91339
C         35.31691        35.91893         0.57542
C         34.09459        35.23647         0.72974
C         35.31309        37.35101         0.49193
C         34.07668        38.06958         0.54161
C         35.31068        40.21128         0.44563
C         34.08514        39.50947         0.49410
C         35.32325        41.65431         0.40072
C         34.08733        42.36835         0.37526
C         35.33394        44.49692         0.29176
C         34.09955        43.79184         0.35457
C         35.35267        45.92432         0.31045
C         34.13281        46.65199         0.41293
C         35.40056        48.76787         0.49762
C         34.15029        48.07508         0.48619
C         35.40664        50.22475         0.57779
C         34.16739        50.93546         0.69005
C         35.43526        53.17010         0.83373
C         34.12689        52.40856         1.09156
C         35.47549        54.63092         0.57741
C         37.86801        18.90912        -1.03408
C         36.62981        18.34189        -1.51681
C         37.86939        20.22021        -0.50418
C         36.59134        20.80566        -0.05865
C         37.83248        23.00335         0.30209
C         36.52537        22.24773         0.44770
C         37.79407        24.44399         0.76157
C         36.53245        25.19119         0.36324
C         37.78388        27.31169         0.26844
C         36.53923        26.57362         0.23650
C         37.77431        28.70337         0.11781
C         36.56210        29.44621         0.06383
C         37.77341        31.62006        -0.01007
C         36.59521        30.88755         0.04835
C         37.81004        33.07421         0.08590
C         36.60322        33.79032         0.34015
C         37.79437        35.90962         0.27582
C         36.57122        35.19429         0.42805
C         37.78084        37.33563         0.28905
C         36.54435        38.05529         0.37013
C         37.78079        40.18204         0.29239
C         36.55546        39.48829         0.37264
C         37.83862        41.65492         0.61520
C         36.54192        42.36878         0.36013
C         37.80293        44.49243         0.07927
C         36.56356        43.77758         0.25794
C         37.81951        45.89052         0.03058
C         36.59253        46.62084         0.23765
C         37.90737        48.70627         0.37169
C         36.60042        48.03107         0.38057
C         37.89252        50.21208         0.33637
C         36.60738        50.92259         0.40088
C         37.79378        53.11718        -0.26641
C         36.66477        52.40456         0.46973
C         37.89603        54.59724         0.05398
C         36.64446        55.27818         0.33140
C         40.35881        16.15024        -1.60129
C         39.16418        16.83234        -1.54457
C         40.33286        18.89483        -0.90912
C         39.11693        18.21236        -1.18641
C         40.31883        20.28857        -0.56508
C         39.07235        20.94889        -0.34495
C         40.29027        23.07403         0.10099
C         39.03351        22.35578         0.03414
C         40.28938        24.48916         0.31891
C         39.05487        25.20056         0.42823
C         40.28317        27.32541         0.34188
C         39.04319        26.59939         0.34080
C         40.30829        28.74528         0.27555
C         39.04808        29.41217        -0.08279
C         40.31705        31.61409         0.05378
C         39.05240        30.90696        -0.18184
C         40.31015        33.04701        -0.36540
C         39.02456        33.77657        -0.01688
C         40.25028        35.92563         0.02450
C         39.02967        35.19983         0.08964
C         40.24501        37.33015         0.12068
C         39.00649        38.04149         0.20447
C         40.23552        40.16817         0.10181
C         39.00119        39.46896         0.18125
C         40.22199        41.58600        -0.39312
C         39.02408        42.37732         0.03135
C         40.23958        44.45057        -0.55531
C         39.02760        43.74280        -0.13675
C         40.23447        45.84159        -0.65618
C         39.05733        46.59353        -0.26741
C         40.29634        48.72990        -0.41670
C         39.09495        47.98629        -0.13967
C         40.33251        50.15618        -0.35141
C         39.01409        50.89766        -0.40762
C         40.33378        53.05089        -0.47840
C         39.10413        52.36465         0.05097
C         40.24074        54.51031        -0.84661
C         39.08702        55.25692        -0.19514
C         40.38352        57.34125        -0.39637
C         39.23133        56.68777        -0.07050
C         42.82686        16.10784        -1.35795
C         41.58589        16.80698        -1.31610
C         42.80919        18.86300        -0.72084
C         41.57818        18.19203        -0.98320
C         42.80182        20.28158        -0.48501
C         41.54746        20.98646        -0.41196
C         42.74520        23.11486        -0.06137
C         41.52645        22.39860        -0.12262
C         42.76000        24.50028         0.23018
C         41.51742        25.20045         0.36091
C         42.73033        27.35878         0.54459
C         41.52312        26.63337         0.44608
C         42.74207        28.78218         0.59344
C         41.48508        29.47921         0.45655
C         42.70282        31.66572         0.63348
C         41.49733        30.93793         0.37321
C         42.70693        33.09371         0.43853
C         41.55513        33.77570         0.03119
C         42.75979        35.98314         0.22525
C         41.56028        35.24089        -0.29589
C         42.73713        37.37104         0.32021
C         41.47853        38.06079         0.20209
C         42.67102        40.21593         0.52965
C         41.44050        39.46915         0.22497
C         42.71512        41.71472         0.27350
C         41.49883        42.36768        -0.24587
C         42.78641        44.35423        -0.89821
C         41.48877        43.69952        -0.59300
C         42.79662        45.81615        -1.24347
C         41.44149        46.57816        -1.13622
C         42.45803        48.85791        -1.44863
C         41.41688        48.05354        -0.97065
C         42.69313        50.19215        -1.03225
C         41.51803        50.88006        -0.57529
C         42.78982        53.04431        -0.70349
C         41.49104        52.34133        -0.61016
C         42.78203        54.50557        -0.92977
C         41.57375        55.21864        -0.80577
C         42.82050        57.30294        -0.93117
C         41.59348        56.62906        -0.74921
C         44.00883        16.74871        -1.08064
C         45.26848        18.81963        -0.47304
C         44.04457        18.14436        -0.75956
C         45.26432        20.24363        -0.24061
C         44.02311        20.96279        -0.32527
C         45.22987        23.11971         0.14699
C         44.03644        22.45726        -0.46385
C         45.22279        24.49071         0.38630
C         43.98713        25.20092         0.37915
C         45.25877        27.34602         0.62247
C         43.97871        26.60833         0.89717
C         45.26729        28.85223         0.42227
C         43.94474        29.50691         0.73097
C         45.20942        31.69035         1.17909
C         43.87689        30.92088         1.25677
C         45.18597        33.17362         0.94483
C         43.92643        33.86008         0.62354
C         45.20816        35.97911         0.57588
C         43.96448        35.25040         0.45900
C         45.20980        37.38376         0.67232
C         43.96126        38.11602         0.58192
C         45.12524        40.29634         1.03443
C         43.93952        39.50127         0.64361
C         45.18954        41.74774         0.66767
C         44.02600        42.36343         0.18302
C         45.30669        44.46940        -0.27980
C         44.07756        43.67880        -0.46783
C         45.29942        45.84784        -0.60944
C         44.12444        46.48337        -1.14292
C         45.34850        48.65549        -1.20796
C         44.28088        47.79811        -1.57655
C         45.23015        50.10520        -1.25728
C         43.99743        50.79951        -1.15640
C         45.27046        53.01234        -1.28053
C         44.05850        52.26216        -0.89505
C         45.24951        54.42028        -1.34631
C         44.01159        55.18217        -1.14079
C         43.99177        56.59598        -1.16368
C         47.69036        18.74512        -0.06962
C         46.52607        18.12440        -0.38981
C         47.76976        20.20368         0.24962
C         46.44917        20.90625         0.11256
C         47.71494        23.10559         0.14474
C         46.45085        22.34842         0.52423
C         47.69071        24.53622         0.35146
C         46.47858        25.20902         0.57065
C         47.72525        27.38954         0.67525
C         46.45528        26.65880         0.65148
C         47.74189        28.77919         0.84302
C         46.44500        29.48085         1.19133
C         47.65297        31.63339         0.64245
C         46.48548        30.97030         0.94306
C         47.62172        33.07535         0.30603
C         46.42760        33.86154         0.55853
C         47.69740        35.98687         0.48041
C         46.44823        35.25832         0.50363
C         47.67408        37.40886         0.68353
C         46.44484        38.08272         0.82040
C         47.71545        40.27219         1.18089
C         46.42400        39.51557         1.17879
C         47.69813        41.79246         1.03170
C         46.43210        42.45638         0.64358
C         47.70033        44.58317         0.22259
C         46.47851        43.82250         0.18904
C         47.70406        45.94083        -0.07446
C         46.51047        46.60865        -0.49123
C         47.75140        48.77250        -0.71006
C         46.52321        48.01622        -0.74751
C         47.71397        50.16821        -1.07123
C         46.47934        50.84473        -1.23407
C         47.70923        52.98046        -1.57016
C         46.48338        52.27792        -1.39183
C         47.65905        54.38909        -1.73552
C         46.47304        55.08449        -1.63071
C         50.13926        20.31954        -0.71019
C         48.79673        20.98682        -0.64579
C         50.13772        23.14248        -0.21704
C         48.87257        22.43662        -0.19853
C         50.15636        24.54580         0.02122
C         48.92841        25.27346         0.28884
C         50.25074        27.34250         0.81978
C         48.94010        26.65228         0.52605
C         50.21318        28.84984         0.66301
C         48.96307        29.53450         0.71317
C         50.17167        31.68265         0.50328
C         48.93870        30.94979         0.59229
C         50.20223        33.11206         0.45251
C         48.95729        33.85150         0.21079
C         50.16741        35.99204         0.57698
C         48.92465        35.29858         0.43208
C         50.15791        37.41874         0.65032
C         48.92616        38.13156         0.72610
C         50.15460        40.26252         0.65584
C         48.94815        39.54191         0.84634
C         50.12184        41.71322         0.49917
C         48.97502        42.44045         0.64887
C         50.22073        44.58855         0.14919
C         48.97820        43.94866         0.72976
C         50.22610        45.98012        -0.05060
C         48.95432        46.75591         0.19708
C         50.20283        48.79605        -0.65305
C         48.96082        48.12348        -0.44376
C         50.19602        50.18510        -1.01531
C         48.95626        50.87889        -1.18651
C         50.20314        52.92333        -1.69245
C         48.95787        52.26526        -1.50539
C         51.30004        21.00210        -0.64455
C         52.59403        23.13598        -0.41429
C         51.35531        22.44076        -0.44525
C         52.58368        24.54151        -0.21266
C         51.38404        25.24133        -0.03142
C         52.70223        27.40451         0.23131
C         51.36913        26.75400        -0.03345
C         52.71573        28.81495         0.77243
C         51.41353        29.55724         0.58414
C         52.66048        31.71002         0.54589
C         51.41947        30.98232         0.54763
C         52.65806        33.12368         0.56724
C         51.40972        33.83441         0.54890
C         52.62941        36.00592         0.69441
C         51.39969        35.27934         0.57796
C         52.61563        37.41241         0.79104
C         51.39305        38.13468         0.70951
C         52.63936        40.28554         0.52287
C         51.38210        39.56198         0.62521
C         52.64144        41.66374         0.24405
C         51.34840        42.34571        -0.11525
C         52.64055        44.50540        -0.23507
C         51.40177        43.84591         0.00361
C         52.65459        45.93064        -0.39668
C         51.43614        46.65791        -0.34741
C         52.67074        48.77374        -0.75461
C         51.43450        48.08777        -0.56817
C         52.67357        50.17559        -1.01496
C         51.42897        50.87653        -1.18382
C         51.39480        52.25303        -1.54034
C         55.06286        23.12785        -0.58124
C         53.86939        22.48965        -0.68224
C         55.15504        24.51113        -0.07605
C         53.85680        25.25744         0.00222
C         55.11802        27.47094        -0.37788
C         53.85645        26.73787         0.00066
C         55.14163        28.90576         0.10556
C         53.94940        29.58728         0.38979
C         55.13617        31.72708         0.30954
C         53.92179        31.00156         0.45759
C         55.12811        33.16847         0.38802
C         53.89752        33.86358         0.54725
C         55.11707        36.00542         0.66796
C         53.88854        35.28593         0.65443
C         55.14035        37.43517         0.82083
C         53.86605        38.16425         1.17814
C         55.08193        40.31090         0.66329
C         53.87008        39.60973         0.73482
C         55.10421        41.68121         0.31389
C         53.86545        42.37029         0.09415
C         55.13164        44.41962        -0.66943
C         53.85656        43.76230        -0.22553
C         55.12680        45.92234        -0.52993
C         53.91006        46.62920        -0.54171
C         55.14391        48.75508        -0.80312
C         53.91205        48.05757        -0.68133
C         55.11220        50.16490        -1.00700
C         53.92386        50.84513        -1.12280
C         57.65751        24.62134        -0.03489
C         56.42745        25.29226        -0.12854
C         57.60824        27.42752        -0.19044
C         56.40465        26.70725        -0.15947
C         57.59972        28.91175        -0.49968
C         56.34817        29.62826        -0.02924
C         57.60447        31.77157        -0.27069
C         56.34708        31.02075         0.08727
C         57.60537        33.20180         0.21282
C         56.36006        33.88760         0.36437
C         57.58923        36.01510         0.62707
C         56.35376        35.30335         0.54695
C         57.58683        37.43600         0.75489
C         56.33534        38.13454         0.82927
C         57.61067        40.31737         0.75039
C         56.33552        39.61738         1.15156
C         57.60403        41.70706         0.45954
C         56.35983        42.40674         0.22942
C         57.60797        44.48231        -0.20054
C         56.37925        43.75255        -0.14609
C         57.60351        45.89537        -0.45509
C         56.36552        46.61909        -0.57616
C         57.64407        48.70703        -0.79078
C         56.38631        48.03619        -0.71665
C         58.84906        25.33528         0.01908
C         60.07526        27.48539         0.01193
C         58.83882        26.74027        -0.06624
C         60.08029        28.84580         0.05397
C         58.87192        29.62226        -0.07625
C         60.06236        31.75869         0.30441
C         58.86774        31.00013         0.05057
C         60.04829        33.11888         0.40473
C         58.81667        33.87410         0.39567
C         60.02205        36.02512         0.80668
C         58.82547        35.30190         0.61832
C         60.01488        37.40810         0.91514
C         58.81580        38.14327         0.85031
C         60.03926        40.30520         0.59094
C         58.82013        39.60269         0.77081
C         60.04942        41.66771         0.39086
C         58.83966        42.39828         0.28924
C         60.05886        44.55195        -0.07143
C         58.84247        43.81358         0.01358
C         60.05637        45.90123        -0.32950
C         58.82990        46.60211        -0.50545
C         58.82543        48.01489        -0.69845
O         42.46060        41.17066         1.63378
O         32.66667        32.10842         1.99112
O         29.78904        31.57408        -1.34155
O         45.29143        32.61459         2.34105
O         31.02492        24.99768        -2.14552
O         41.97673        46.09732        -2.41282
O         48.24560        33.39060        -0.98548
O         34.95111        33.24024         2.00084
O         47.79488        41.15071         2.34465
O         26.04367        46.27116         2.14450
O         43.31238        48.34125        -2.42633
O         54.50599        24.71893         1.23394
O         43.61797        52.65326         0.46805
O         39.10471        30.07109        -1.42034
O         35.86748        19.89989         0.85854
O         38.23843        49.51673         1.57159
O         36.45601        52.84026         1.85918
O         45.61555        39.86379         2.34425
O         43.58319        43.60171        -1.88169
O         28.39233        33.22592         1.84896
O         55.18141        44.19065        -2.14685
H         54.46500        44.73138        -2.54394
O         34.86768        24.27155         1.82015
H         35.68007        24.41184         2.35790
O         25.25311        28.75800         1.64146
H         24.42162        28.28566         1.86338
O         48.91954        47.00840         1.66067
H         49.70409        47.55545         1.88126
O         45.53982        29.09225        -0.99773
H         44.83620        28.65547        -1.52219
O         35.89583        23.28133        -1.60978
H         35.17339        23.67447        -2.14384
O         25.15588        41.66973         2.08285
H         24.31500        41.18590         2.23174
O         36.25979        22.17256         1.86988
H         35.85976        21.28000         2.02865
O         39.85744        54.48424        -2.29423
H         40.67532        54.34273        -2.81822
O         57.57701        31.84699        -1.75821
H         58.34397        32.39577        -2.03109
O         44.15824        22.70336        -1.93871
H         43.36034        22.31501        -2.35832
O         40.31380        32.97655        -1.86770
H         39.78565        32.18781        -2.12871
O         51.17648        42.09537        -1.56859
H         52.01294        42.35931        -2.00883
O         50.56743        27.04622         2.21876
H         49.81174        27.34620         2.76775
O         57.53392        29.00323        -1.97263
H         57.51883        29.97321        -2.18388
O         52.84097        28.63394         2.22791
H         52.11990        28.00902         2.49881
O         40.06757        41.40214        -1.86337
H         40.16214        42.28535        -2.28269
O         41.68943        35.33193        -1.76945
H         41.15549        34.59255        -2.15177
O         23.58218        35.35415         1.56830
H         24.30122        35.02003         2.14666
O         31.72589        22.46838        -2.65727
H         31.54355        23.41683        -2.87851
O         33.94799        52.39877         2.54325
H         34.84986        52.28610         2.92582
O         43.60058        30.75591         2.69578
H         43.90164        31.59084         3.13019
O         48.21878        20.95570        -1.97722
H         48.81898        21.43958        -2.58183
O         35.07515        31.97206        -1.43165
H         35.18650        31.14590        -1.94944
O         38.63354        50.81370        -1.80495
H         39.27327        51.33558        -2.33240
O         48.27903        20.33924         1.61840
H         47.86758        19.63283         2.15989
O         29.04036        43.87925        -1.48713
H         29.84030        43.42954        -1.83542
O         27.69415        35.86572         2.39096
H         27.86970        34.92169         2.63148
O         53.85658        38.22053         2.66209
H         53.81241        37.29662         2.99028
O         56.28430        39.70087         2.61557
H         55.43755        39.26880         2.89472
O         46.47982        22.33908         2.00263
H         47.27919        21.80787         2.24610
O         38.03806        41.70774         2.08239
H         37.25444        41.29164         2.50109
O         37.75764        24.38732         2.25534
H         37.44734        23.47985         2.49858
O         37.48253        53.05345        -1.67506
H         38.15809        53.59318        -2.15384
O         39.22344        52.37999         1.48974
H         39.98989        51.82661         1.74835
O         55.01915        27.59508        -1.84748
H         55.84688        28.05639        -2.14394
O         46.21578        29.27820         2.61107
H         45.34152        29.68189         2.83942
O         49.03171        44.23997         2.16269
H         48.93224        45.22054         2.26144
O         43.93456        26.47765         2.37760
H         44.73463        25.97797         2.64987
O         51.04260        27.14653        -1.40478
H         51.81413        26.93961        -1.97390
H         22.00827        26.80286        -0.61594
H         21.99634        29.25291        -0.71112
H         21.97759        31.17988        -0.60272
H         21.98547        33.61516        -0.40999
H         22.21718        35.50159        -1.10100
H         22.36626        37.92714        -1.29425
H         22.15775        39.79991        -0.69639
H         22.16556        42.23145        -0.66288
H         22.10451        44.17082        -0.32925
H         22.11220        46.60529        -0.05261
H         25.36991        23.40620        -0.45929
H         23.23973        24.64914        -0.55021
H         25.42617        49.92052         0.73339
H         23.32365        48.71218         0.55188
H         27.08286        22.49915        -0.01609
H         27.08962        50.86149         0.52659
H         29.20994        21.31320        -0.22185
H         29.20196        52.04963         0.43528
H         32.80401        19.13713        -0.53570
H         30.72239        20.31980        -1.05554
H         32.91790        54.17179         0.36177
H         30.87310        52.92937        -0.02608
H         34.53784        18.58746        -1.88535
H         34.55889        55.22321         0.71086
H         36.67635        17.43012        -2.12872
H         36.62303        56.37624         0.26648
H         40.37297        15.08184        -1.86115
H         38.23142        16.29045        -1.75034
H         40.43575        58.43631        -0.30944
H         38.37574        57.27508         0.29157
H         42.82616        15.03850        -1.61454
H         42.84279        58.40140        -0.89159
H         44.94384        16.17489        -1.12562
H         44.91997        57.16065        -1.32150
H         48.61016        18.14906         0.02388
H         46.54931        17.04063        -0.57096
H         48.58258        54.95537        -1.91351
H         46.49628        56.17662        -1.73884
H         50.16237        19.23574        -0.89603
H         50.22854        53.98642        -1.96498
H         52.24373        20.44685        -0.74009
H         52.32997        52.80496        -1.69965
H         55.98265        22.60882        -0.88870
H         53.86596        21.44972        -1.03820
H         56.04901        50.73021        -1.09271
H         53.95553        51.92876        -1.29435
H         57.67918        23.52381         0.01546
H         57.67900        49.79700        -0.91618
H         59.80747        24.80580         0.11713
H         61.01776        26.92579         0.10081
H         61.03884        29.36428         0.19246
H         61.02193        31.23616         0.41476
H         60.99920        33.64006         0.57310
H         60.98759        35.50501         0.84980
H         60.97551        37.92305         1.04527
H         60.99684        39.76918         0.60989
H         61.01598        42.17300         0.26897
H         61.02108        44.04695         0.08337
H         61.00244        46.45916        -0.37944
H         59.78562        48.54832        -0.74839
