         349
 CSIRO Nanostructure Databank - Neutral Graphene Oxide Data Set
C          1.31813         3.45385         0.23523
C          0.22727         4.17507         0.68765
C          1.19673         6.32159         0.00224
C          0.17659         5.58642         0.60817
C          1.18039         7.75115        -0.10975
C          0.03488         8.51247         0.20630
C          1.26333        10.64395         0.34787
C          0.06509         9.88967         0.40223
C          1.37259        11.97110         0.82065
C          0.25864        12.61592         1.46813
C          1.58309        14.64675         1.79449
C          0.34598        13.88060         1.95268
C          1.50003        16.14708         1.53070
C          0.18496        16.80681         1.32392
C          1.33414        18.97807         1.32488
C          0.12452        18.13838         1.14566
C          1.28047        20.45055         1.15327
C          0.11112        21.14958         1.01697
C          1.21692        23.32243         0.69864
C          0.08072        22.56100         0.75418
C          1.22803        24.70373         0.12931
C         -0.00894        25.49565         0.02255
C          1.25088        27.60212        -0.18557
C          0.02359        26.84291        -0.16657
C          1.22403        29.02764        -0.31723
C          3.61106         3.43026        -0.66036
C          2.44115         4.11200        -0.34397
C          3.60226         6.31284        -0.93775
C          2.33394         5.57111        -0.57864
C          3.68759         7.76641        -0.65858
C          2.38913         8.48083        -0.53442
C          3.76199        10.61573        -0.06077
C          2.45020         9.98680        -0.23065
C          3.83447        11.97384         0.25979
C          2.63400        12.68496         0.73164
C          4.09430        14.69319         1.28551
C          2.76366        13.95520         1.26372
C          3.98214        16.16436         1.12635
C          2.67309        16.82139         0.81242
C          3.89689        19.08095         0.91134
C          2.67580        18.29514         1.22201
C          3.84082        20.50886         0.95392
C          2.55926        21.18286         1.25802
C          3.77210        23.40615         0.78871
C          2.50687        22.70836         1.07460
C          3.70663        24.90370         0.87713
C          2.52324        25.47992         0.12869
C          3.69872        27.68343         0.06440
C          2.48537        26.95458         0.02006
C          3.66691        29.11371        -0.16439
C          2.38239        29.75712        -0.29948
C          6.03741         3.38133        -1.06372
C          4.83356         4.09446        -0.99895
C          6.04035         6.23910        -1.12924
C          4.86193         5.54698        -1.01646
C          6.18199         7.64305        -0.61645
C          4.88496         8.40829        -0.60057
C          6.25601        10.54813        -0.50928
C          5.02613         9.79851        -0.04006
C          6.38135        11.96878         0.01268
C          5.05102        12.67723         0.11613
C          6.26712        14.89126        -0.10115
C          4.96286        14.15081         0.07172
C          6.28056        16.23680         0.10185
C          5.26384        16.93971         1.00384
C          6.27329        19.16571         0.37647
C          5.09237        18.41226         0.67579
C          6.24535        20.59630         0.48326
C          5.00913        21.26623         0.75347
C          6.21844        23.46388         0.62255
C          4.97386        22.72466         0.74431
C          6.19001        24.90559         0.59351
C          4.99833        25.60486         0.54482
C          6.16825        27.73791         0.09006
C          4.96140        27.02374         0.26412
C          6.17653        29.16984        -0.40060
C          4.83900        29.83511        -0.30114
C          8.51061         3.39977        -1.20916
C          7.28442         4.04339        -1.25743
C          8.54317         6.28318        -1.62098
C          7.25303         5.50315        -1.49723
C          8.55995         7.75519        -1.38730
C          7.38561         8.42235        -1.11569
C          8.61151        10.59396        -1.21851
C          7.38781         9.87192        -0.94793
C          8.52533        12.08237        -1.46449
C          7.41641        12.78843        -0.72070
C          8.59778        14.91501        -1.07589
C          7.41303        14.16936        -0.68148
C          8.55249        16.39675        -1.04184
C          7.26041        17.10728        -0.63743
C          8.65732        19.20889        -0.17369
C          7.44569        18.49025        -0.04342
C          8.65042        20.63048         0.01851
C          7.44223        21.33860         0.29260
C          8.63920        23.53439         0.17323
C          7.42970        22.77991         0.41400
C          8.68924        24.92367         0.29024
C          7.47526        25.67305         0.76147
C          8.62437        27.81463         0.10989
C          7.42289        27.10034         0.25190
C          8.63269        29.26838         0.05751
C          7.30888        29.97114         0.28240
C         10.97495         3.45258        -1.00441
C          9.75317         4.12736        -1.27189
C         11.05908         6.23838        -1.73647
C          9.77429         5.52452        -1.45575
C         11.02519         7.73425        -1.49300
C          9.84318         8.44404        -1.42807
C         11.05829        10.64930        -1.47196
C          9.82352         9.91540        -1.39367
C         11.06520        12.09299        -1.41197
C          9.83994        12.81179        -1.34021
C         11.10813        14.95589        -1.40895
C          9.81224        14.23165        -1.30788
C         11.15563        16.43163        -1.16161
C          9.85453        17.16359        -0.99717
C         11.11869        19.21988        -0.37765
C          9.89175        18.54399        -0.47085
C         11.08427        20.64391        -0.23034
C          9.87340        21.33328        -0.14422
C         11.13599        23.57729        -0.37551
C          9.82617        22.80406        -0.27859
C         11.12556        24.99699        -0.02167
C          9.90746        25.66020         0.17480
C         11.07905        27.82523         0.06006
C          9.89768        27.12343         0.16126
C         11.09429        29.26088        -0.39068
C          9.79724        29.96063        -0.07891
C         13.31496         3.51419        -0.21868
C         12.19679         4.16556        -0.86103
C         13.54512         6.23373        -1.15918
C         12.25626         5.53968        -1.15253
C         13.56080         7.72245        -1.13154
C         12.33883         8.44406        -1.71050
C         13.49054        10.58167        -1.20623
C         12.29494         9.92071        -1.38432
C         13.55808        12.01549        -1.52358
C         12.31365        12.79756        -1.42824
C         13.61305        14.91470        -1.30825
C         12.38562        14.20297        -1.31865
C         13.67296        16.31737        -0.96662
C         12.38981        16.98835        -0.46760
C         13.59107        19.17728        -0.47917
C         12.39808        18.51041        -0.50668
C         13.63306        20.62383        -0.16224
C         12.34989        21.38308        -0.06426
C         13.57806        23.56321        -0.14685
C         12.40061        22.85253        -0.21176
C         13.55960        25.00208        -0.19078
C         12.37201        25.68701        -0.00629
C         13.61959        27.88210        -0.03888
C         12.37582        27.14053         0.39087
C         13.56627        29.34959         0.04593
C         12.34506        29.99152         0.02460
C         15.38635         3.70000         1.07859
C         14.49187         4.17612         0.04727
C         15.97348         6.24927        -0.20873
C         14.74262         5.48329        -0.59599
C         16.05388         7.72092        -0.61655
C         14.68484         8.38943        -0.77199
C         16.04323        10.51753        -0.89664
C         14.68231         9.89200        -0.61478
C         16.15222        11.95264        -1.33209
C         14.88049        12.70079        -1.72598
C         16.16628        14.94048        -1.57300
C         14.84155        14.24879        -1.92276
C         16.11053        16.46981        -1.62295
C         14.86647        17.02245        -0.94354
C         16.16799        19.23162        -0.51803
C         14.88527        18.44557        -0.52105
C         16.15938        20.73593        -0.54384
C         14.86535        21.43976        -0.40125
C         16.13039        23.63507        -0.16992
C         14.87658        22.85045         0.17051
C         16.08196        25.00442        -0.21347
C         14.81165        25.73681        -0.58926
C         16.05603        27.98212        -0.57674
C         14.78276        27.22101        -0.27612
C         16.03242        29.43076        -0.13556
C         14.80839        30.06661         0.10105
C         17.20742         4.02763         2.71437
C         16.44817         4.42937         1.54380
C         17.80487         6.58099         1.54470
C         16.84524         5.69307         0.87061
C         17.86926         7.94745         1.22955
C         16.98481         8.53904         0.26366
C         18.07859        10.69937         0.60004
C         17.07562         9.90752        -0.00418
C         18.27613        12.09767         0.15829
C         17.35318        12.72655        -0.84365
C         18.47858        14.99164        -0.39404
C         17.36123        14.22557        -1.02126
C         18.62283        16.36820        -0.67590
C         17.47444        17.12910        -1.23979
C         18.68983        19.23373        -0.34057
C         17.47374        18.59268        -0.88236
C         18.67266        20.68848        -0.03859
C         17.39711        21.45932        -0.09387
C         18.61001        23.64327        -0.13132
C         17.40640        22.94832        -0.15155
C         18.61736        25.08328        -0.02798
C         17.31402        25.77024         0.02714
C         18.56486        27.98952        -0.13100
C         17.28178        27.27384        -0.02224
C         18.52132        29.41313        -0.19966
C         17.26523        30.10153        -0.10214
C         18.27470         4.72708         3.15796
C         19.57527         6.87605         3.27755
C         18.84126         5.90756         2.39920
C         19.58250         8.20104         3.01183
C         18.81583         8.78525         1.92887
C         19.97592        11.00131         2.15847
C         18.95177        10.14489         1.56855
C         20.03658        12.32699         1.92307
C         18.97220        13.05246         1.13513
C         20.60220        14.99097         0.76840
C         19.41519        14.32643         0.42639
C         20.80688        16.31393         0.40004
C         19.78646        17.05799        -0.22632
C         21.08876        19.24987         0.10213
C         19.85725        18.52304        -0.21083
C         21.16650        20.60188         0.08171
C         19.96761        21.42146        -0.22233
C         21.12282        23.74418         0.01555
C         19.91914        22.93548        -0.25512
C         21.05702        25.09320         0.11469
C         19.80258        25.82050         0.02625
C         20.98390        28.04312        -0.08818
C         19.78808        27.28432        -0.03742
C         20.95198        29.43495        -0.18608
C         19.74224        30.12595        -0.22448
O         16.43594        10.84625        -2.24355
O         10.35471        23.24812        -1.58025
O          2.11023        24.77382        -1.07262
O         17.95384        13.44998         2.03128
O          6.50289         7.41379         0.77577
O         15.48611        21.30414        -1.71218
O          2.19395         9.46683        -1.59266
O         13.06013        20.90581         1.16875
O          1.83223        15.65138         2.84688
O         17.11056        26.61569         1.26322
O          2.56432        22.08989         2.41041
O         17.75534        18.15155        -2.24857
O          2.63057         5.95921        -1.97260
O         20.03020        22.13507        -1.50526
O          9.07289        17.06438        -2.24415
O          2.11002        18.57297         2.52421
O         14.53624         5.56418        -2.04270
O         14.23708        12.08823        -2.86862
O         17.18019         5.50479        -0.57466
O         11.28685        15.94450        -2.50980
O         18.65918        12.19563        -1.24449
O         17.92398        20.97673         1.19860
O          7.76484         5.89193        -2.82604
O         17.23350        14.50887        -2.47580
O         15.66060        18.67495         0.73856
O          4.12244        14.52418        -1.07597
H          4.61249        14.29943        -1.89648
O          6.88569        11.80858         1.38616
H          6.34952        11.07212         1.78374
O         16.62204         7.75512        -1.94766
H         16.14571         7.08655        -2.48904
O         19.83015         5.35388         1.45589
H         19.33940         5.00976         0.67762
O          4.81957        14.35675         2.49545
H          4.22788        14.55665         3.25313
O         12.21713        16.62814         0.93467
H         12.92910        17.06029         1.45380
O          2.43445        16.77305        -0.62425
H          2.96486        16.02234        -0.99486
O         16.24177        27.99195        -2.03371
H         15.58333        28.61222        -2.41392
O         11.22834         6.09300        -3.22115
H         11.29543         5.13258        -3.41578
O          8.14800        12.18027        -2.89970
H          8.93800        11.94289        -3.43207
O         14.51620        10.14348         0.83285
H         13.65060         9.77650         1.11317
O          5.93531        16.92870         2.31393
H          5.88017        15.99882         2.64473
O         12.57615         8.43792        -3.15235
H         12.24623         7.57503        -3.50718
O          6.53710        29.15811        -1.82154
H          5.83742        28.66823        -2.30309
O         14.65878        14.46292        -3.33654
H         15.45776        14.11515        -3.78897
O         14.94455        22.74168         1.61780
H         14.25782        22.08699         1.89879
O          6.54953        17.37813        -1.89494
H          7.24796        17.58373        -2.56200
O         15.88053        16.80312        -3.00883
H         16.60078        16.38627        -3.53005
O         14.80269        25.67037        -2.06077
H         15.46115        26.33543        -2.38417
O         12.42779        27.13168         1.86367
H         13.24555        26.66016         2.13223
O          3.43200        25.21196         2.29335
H          3.75520        24.46407         2.84031
O          7.63498        25.80469         2.22568
H          6.78153        26.12842         2.58576
O          7.06284        30.08910         1.68648
H          7.25011        29.22479         2.10747
O          5.26562         9.59592         1.40822
H          5.81680         8.73402         1.45260
O         11.17328        29.20288        -1.87501
H         10.32366        28.83228        -2.19846
H          1.34392         2.36094         0.35464
H         -0.61413         3.64505         1.15537
H         -0.69131         6.10184         1.04273
H         -0.92140         7.99456         0.36546
H         -0.87486        10.38313         0.68408
H         -0.67872        12.06014         1.60140
H         -0.49951        14.34498         2.47734
H         -0.72523        16.19301         1.25762
H         -0.83882        18.62260         0.93201
H         -0.85054        20.61793         1.00593
H         -0.89316        23.00335         0.50139
H         -0.97880        24.98891         0.12979
H         -0.92160        27.39958        -0.25290
H          0.25402        29.52987        -0.44410
H          3.63663         2.33756        -0.52559
H          2.35516        30.84890        -0.42670
H          6.02919         2.29042        -0.91909
H          4.78856        30.91719        -0.49725
H          8.55233         2.31164        -1.05277
H          7.33564        31.00439        -0.14232
H         10.95790         2.37428        -0.79125
H          9.78164        31.06182        -0.09195
H         13.14613         2.51826         0.21810
H         12.30921        31.09013         0.09354
H         15.12505         2.75437         1.57805
H         14.79029        31.14953         0.29866
H         16.87094         3.12931         3.25466
H         17.27941        31.18899         0.06983
H         18.82341         4.38124         4.04690
H         20.17083         6.47195         4.10939
H         20.17066         8.86847         3.65679
H         20.72689        10.54025         2.81555
H         20.80137        12.92070         2.44480
H         21.37806        14.47905         1.35322
H         21.73691        16.80755         0.71129
H         22.00676        18.67635         0.29136
H         22.13471        21.10038         0.23471
H         22.09572        23.23541         0.06711
H         21.98744        25.65395         0.27781
H         21.96108        27.54436        -0.04938
H         21.89783        29.99373        -0.21547
H         19.73074        31.22446        -0.26149
