         318
 CSIRO Nanostructure Databank - Neutral Graphene Oxide Data Set
C         30.35462        31.66096         0.73086
C         30.49155        32.89083         0.85849
C         30.45344        36.10467         1.12445
C         30.44786        37.37756         0.94946
C         30.35808        40.63022         0.27847
C         30.45061        41.86704         0.56685
C         32.63402        29.00336        -0.55922
C         31.56241        29.48723        -0.17188
C         32.68154        31.61149        -0.02205
C         31.55018        30.73860         0.68682
C         32.67627        33.11389        -0.01666
C         31.50189        33.85915         0.57676
C         32.69061        36.03799         0.15744
C         31.47256        35.23034         0.65834
C         32.79670        37.46792         0.81018
C         31.47217        38.28097         0.70858
C         32.76327        40.49150         0.40269
C         31.47849        39.75263         0.96236
C         32.82971        41.94692         0.88632
C         31.56681        42.68230         0.81958
C         32.81197        44.66942         1.40399
C         31.78074        44.06765         1.05201
C         35.54142        27.41566        -1.10371
C         35.20928        28.66348        -0.32047
C         34.00768        29.48360        -0.71751
C         35.23985        31.55934         0.35557
C         34.01140        30.93944        -0.30040
C         35.28348        33.07409         0.07892
C         33.99941        33.85760        -0.31127
C         35.24483        36.04134         0.11804
C         33.98723        35.22636         0.42933
C         35.29431        37.48775         0.51558
C         34.00602        38.25230         0.24901
C         35.26279        40.36026         1.17144
C         33.98418        39.67542         0.80071
C         35.31026        41.85083         1.06849
C         34.03760        42.55923         1.21153
C         35.11126        44.53590         0.31119
C         34.19582        44.09513         1.47095
C         35.37393        45.94762        -0.10001
C         37.92257        27.29596        -0.82461
C         36.60716        26.84580        -1.34913
C         37.77881        28.85490        -0.98363
C         36.52343        29.50756        -0.38662
C         37.81951        31.52800         0.32986
C         36.51439        30.82831        -0.05599
C         37.77412        33.07655         0.32558
C         36.45552        33.75844         0.16508
C         37.79300        35.94890         0.36656
C         36.50650        35.25007         0.03771
C         37.76809        37.38927         0.72242
C         36.46458        38.12250         0.76772
C         37.79458        40.27717         0.77350
C         36.55542        39.55300         1.26562
C         37.69436        41.70550         0.29729
C         36.48769        42.49223         0.75806
C         37.65003        44.38374        -0.53488
C         36.61899        44.00982         0.58959
C         37.38230        45.60139        -1.42979
C         36.19652        46.34016        -0.93718
C         40.01735        24.94859         0.13677
C         38.99036        25.48776         0.53490
C         40.24750        27.48345        -1.04860
C         38.04229        26.61733         0.58521
C         40.26019        28.87248        -0.76484
C         39.05676        29.56645        -0.67543
C         40.34780        31.65967        -0.20036
C         38.97730        31.06069        -0.59403
C         40.27553        33.15776        -0.42398
C         39.03130        33.86490         0.01293
C         40.32451        36.05322         0.10656
C         39.01838        35.35975        -0.32020
C         40.29174        37.39711         0.50650
C         39.00995        38.17219         0.31899
C         40.27697        40.32998         1.14028
C         38.98995        39.62174         0.76042
C         40.25334        41.83040         0.86009
C         38.96412        42.50765         0.47353
C         40.23490        44.45793        -0.28958
C         39.01128        43.81397        -0.22309
C         40.32256        45.92367        -0.53851
C         38.26057        46.18338        -2.48738
C         40.08986        47.98768        -2.67343
C         39.01493        47.33725        -2.49986
C         42.57782        24.61038        -0.34892
C         41.21847        25.11102        -0.76461
C         42.66793        27.37982        -0.23128
C         41.39373        26.65809        -0.65081
C         42.71471        28.84944        -0.46067
C         41.55996        29.54433        -0.64070
C         42.86023        31.79833        -0.99036
C         41.49080        31.00894        -1.03162
C         42.80674        33.12735        -0.18764
C         41.55190        33.94067        -0.41876
C         42.83102        35.96070         0.54777
C         41.54255        35.34132         0.02502
C         42.79789        37.46938         0.19159
C         41.57668        38.12428         0.88007
C         42.81544        40.37035         0.59063
C         41.51849        39.62548         0.60316
C         42.75996        41.80699         1.14121
C         41.52669        42.51559         0.56130
C         42.80606        44.57350        -0.09073
C         41.49314        43.79892         0.07833
C         42.69946        45.47600        -1.33885
C         41.59520        46.49778        -1.10716
C         42.76323        48.03331        -2.59508
C         41.43859        47.43791        -2.81656
C         43.63938        25.23522        -0.34808
C         45.03605        27.32794        -1.06166
C         44.05354        26.65092        -0.08721
C         45.24260        28.82428        -0.66952
C         44.01612        29.54283        -0.13703
C         45.25788        31.63235        -0.25075
C         44.04524        30.99993        -0.49077
C         45.34529        33.12507        -0.25867
C         44.06402        33.94526        -0.41985
C         45.38997        36.04864        -0.03081
C         44.06542        35.33198        -0.03337
C         45.34718        37.48469         0.45401
C         44.09221        38.22082         0.45873
C         45.34528        40.30247         0.90340
C         44.07065        39.57945         0.65949
C         45.36278        41.79381         0.97939
C         44.08934        42.65750         0.99520
C         45.29294        44.29536        -0.60132
C         43.99826        43.56900        -0.24625
C         45.22924        45.42733        -1.44177
C         44.03305        46.12536        -1.71227
C         43.81170        47.31893        -2.42549
C         47.46859        27.43898        -1.21137
C         46.43287        26.78623        -1.13459
C         47.76709        28.89610        -1.28073
C         46.44519        29.51065        -0.67631
C         47.76086        31.47081         0.33182
C         46.47545        30.88612        -0.23088
C         47.69169        32.96740         0.66724
C         46.44209        33.76698         0.52104
C         47.73736        35.95045         0.96643
C         46.37827        35.27025         0.85889
C         47.77695        37.32311         0.94982
C         46.55863        38.09502         0.71629
C         47.87180        40.31124         0.92947
C         46.62037        39.58909         0.48973
C         47.90788        41.65261         0.67791
C         46.67132        42.55906         0.74949
C         47.93112        44.49949        -0.37768
C         46.61297        43.53074        -0.44933
C         47.67240        45.38128        -1.59173
C         46.55756        45.87716        -1.81394
C         50.37172        29.18967        -1.05806
C         49.00409        29.36231        -0.50549
C         50.27380        31.72194         0.08961
C         49.00749        31.10458        -0.47883
C         50.21713        32.87616         0.81014
C         48.98292        33.77053         0.64588
C         50.22285        35.79570         1.56658
C         48.86955        35.07133         1.51291
C         50.27640        37.24482         1.04356
C         49.00676        38.00105         1.56178
C         50.32984        40.08586         0.54744
C         49.13097        39.57956         1.43486
C         50.43145        41.60518         0.78156
C         49.19415        42.30904         0.26419
C         50.55447        44.29503        -0.36579
C         49.19713        43.67601        -0.37937
C         51.45628        29.72125        -0.77588
C         52.68526        31.69781         0.40623
C         51.64144        31.18693        -0.53132
C         52.58770        32.72082         1.08764
C         51.39919        33.43108         1.65261
C         52.63435        35.75821         1.19456
C         51.47321        34.95170         1.62508
C         52.66549        36.98852         1.13899
C         51.60124        38.00649         1.44873
C         52.79205        39.95800         0.30575
C         51.66286        39.33755         0.76121
C         52.71127        41.19974        -0.18096
C         51.96979        42.27689        -0.13638
C         51.57139        43.55879        -0.47552
O         45.44645        40.97982         2.19678
O         39.44340        42.55842         1.84287
O         36.79842        39.45120         2.69993
O         34.31317        39.86427         2.18353
O         37.43377        27.00748         1.55631
O         41.71432        26.98302         0.78254
O         39.47284        46.69317        -0.09112
O         42.03302        40.11173        -0.66728
O         50.90485        35.55139         2.83167
O         46.76727        33.08326         1.78477
O         37.03487        44.22897        -1.86666
O         40.84366        33.62277        -1.68144
O         34.19740        30.52380        -1.69138
O         45.00315        33.67675        -1.54196
O         38.64319        33.60066         1.38965
O         42.47832        41.70524         2.52197
O         39.12923        26.87481        -1.54298
O         32.21362        32.33419        -1.18461
O         49.17885        42.48143        -1.20354
O         35.87054        35.78492        -1.17382
O         38.57971        31.56244        -1.89482
H         39.38364        31.52646        -2.47727
O         46.88672        43.34501         1.93639
H         46.53919        42.82922         2.69731
O         37.17298        44.60460         1.74916
H         36.62536        44.37743         2.53481
O         41.76954        38.00309         2.31548
H         41.18469        38.69168         2.74810
O         43.01639        45.44566         1.01364
H         43.37797        44.89782         1.76400
O         41.05541        30.95977        -2.41072
H         41.84596        31.19913        -2.96197
O         49.36996        40.09325         2.74705
H         49.08214        39.40781         3.39750
O         38.87283        38.28725        -1.15965
H         39.63660        38.80758        -1.49310
O         45.94142        36.08112        -1.36568
H         45.32354        36.57883        -1.94118
O         42.58827        37.49740        -1.23973
H         42.52370        38.45096        -1.49604
O         33.94485        38.37089        -1.17687
H         33.83567        37.46958        -1.56804
O         42.89486        35.66892         1.97463
H         42.49224        36.43251         2.46787
O         43.72630        42.65441        -1.32864
H         43.36022        43.16588        -2.09037
O         46.65771        39.68675        -0.97623
H         47.59709        39.68896        -1.26600
O         42.00529        47.52912        -0.29256
H         41.21253        47.91335         0.14576
O         37.54546        41.56084        -1.15704
H         36.71720        41.06842        -1.34196
O         51.13103        33.01315         2.98857
H         51.74309        33.48575         3.59154
O         47.83468        29.26627        -2.64978
H         48.10129        30.21603        -2.70312
O         48.86876        37.73504         2.97589
H         48.67696        36.77933         3.12117
O         38.84997        35.50820        -1.73585
H         38.77571        36.47398        -1.92480
O         49.10063        34.28340        -0.70416
H         49.04634        33.53236        -1.34049
O         49.91626        39.85611        -0.82422
H         50.50954        40.36808        -1.41733
O         34.78660        44.33064         2.73447
H         34.17578        44.01999         3.43453
O         48.93864        28.80259         0.76380
H         49.72254        29.05780         1.29057
O         50.21226        37.13906        -0.37561
H         50.15363        38.04260        -0.77505
O         47.95025        45.30361         0.76093
H         47.11136        45.80336         0.83073
O         44.11073        29.49429         1.33318
H         44.37740        28.57384         1.58394
O         42.83500        32.82151         1.23580
H         42.87877        33.67785         1.73539
O         44.41228        27.27801        -2.33971
H         45.05638        27.58646        -3.01177
O         43.16142        32.16845        -2.35924
H         42.67990        33.00114        -2.56585
O         44.51581        26.79725         1.24394
H         43.86359        26.37358         1.84244
O         45.81403        35.36454         2.18065
H         46.39761        34.84450         2.78200
O         32.52216        36.17921        -1.25914
H         31.65151        36.59929        -1.42480
O         34.02726        34.88646         1.82487
H         33.99230        35.72657         2.34602
O         48.88046        31.58448        -1.82795
H         49.78984        31.60841        -2.21773
O         41.45634        46.63002        -3.94852
H         40.54286        46.48075        -4.27332
O         51.72816        31.85003        -1.78316
H         52.59643        31.64791        -2.19093
O         32.69278        40.53918        -1.02403
H         31.82849        40.92901        -1.28028
O         44.17729        43.44660         2.19088
H         43.59524        42.92562         2.83327
O         37.62510        29.02848        -2.42100
H         37.67710        30.00067        -2.59868
O         50.72709        41.99226         2.05188
H         51.22352        41.29179         2.52363
O         31.95763        30.42789         1.98150
H         31.30947        29.82869         2.40321
O         51.58652        38.20956         2.85905
H         52.43536        38.61975         3.12343
O         42.31749        44.61257        -2.43639
H         42.29117        45.15700        -3.26270
O         48.50884        34.74126         2.86800
H         49.34372        34.49145         3.33686
O         47.95264        30.85335         1.62932
H         47.25006        31.20948         2.21955
O         40.89881        24.75526        -2.07603
H         40.77048        23.78739        -2.13950
O         38.00219        31.09939         1.68769
H         38.79942        31.56760         2.03863
O         31.38378        39.98443         2.35122
H         30.72017        39.37561         2.73587
O         38.30606        45.46162        -3.63062
H         37.77194        44.63964        -3.48727
O         35.08797        31.39339         1.78235
H         35.98488        31.43587         2.18841
O         46.70273        42.72870        -1.63006
H         46.80004        43.32446        -2.40355
O         33.05383        37.31063         2.22040
H         32.22454        37.00529         2.64834
O         40.56670        31.37632         1.18811
H         41.43803        31.76908         1.46309
O         34.99575        28.28919         1.02743
H         35.79355        27.81867         1.37557
O         34.58627        43.87945        -0.82480
H         35.19864        44.02656        -1.58503
O         40.34541        40.18517         2.59195
H         41.08663        40.82969         2.86174
O         34.05736        34.06706        -1.71885
H         33.56942        33.32667        -2.14996
O         37.97567        36.37295         1.75259
H         37.63796        38.96501         2.84517
