         410
 CSIRO Nanostructure Databank - Neutral Graphene Oxide Data Set
C         27.94206        27.54012         0.95120
C         27.90193        28.91784         0.56276
C         26.72194        29.69356         0.70734
C         27.80792        31.69927        -0.17291
C         26.68731        31.04371         0.38343
C         27.84608        33.10092        -0.45409
C         26.64064        33.87388        -0.48884
C         27.87811        35.96355        -0.81861
C         26.65400        35.23131        -0.66516
C         27.87172        37.36818        -0.94032
C         26.73685        38.19496        -0.59452
C         27.84607        40.23652        -1.54205
C         26.72394        39.53608        -0.80059
C         27.88884        41.73680        -1.33410
C         26.72753        42.47212        -1.40174
C         27.88699        44.58869        -1.01092
C         26.72038        43.88846        -1.19485
C         27.89583        45.99745        -0.71358
C         30.31843        27.40017         0.35383
C         29.09685        26.81560         0.83703
C         30.30092        28.79598        -0.03188
C         29.07618        29.50759         0.02933
C         30.36228        31.64658        -0.59419
C         28.99794        30.88933        -0.44186
C         30.33384        33.09921        -0.47687
C         29.09430        33.78851        -0.59835
C         30.36208        35.88309        -0.74223
C         29.11975        35.21772        -0.76100
C         30.42116        37.28933        -1.14248
C         29.10424        38.06306        -1.31776
C         30.34415        40.20962        -1.09728
C         29.15305        39.53721        -1.25988
C         30.33043        41.67315        -1.06318
C         29.16221        42.39874        -1.14923
C         30.35680        44.59369        -0.53070
C         29.21575        43.91764        -1.26371
C         30.30794        45.93715        -0.22388
C         29.04632        46.64917        -0.38690
C         32.82953        24.72833         1.00114
C         31.63057        25.38511         0.90425
C         32.71092        27.25025        -0.43584
C         31.52107        26.67091         0.30631
C         32.79264        28.76126        -0.24000
C         31.54420        29.48784        -0.21824
C         32.79218        31.62155        -0.09952
C         31.58564        30.90094        -0.29821
C         32.75522        33.04012        -0.03350
C         31.55481        33.78177        -0.24718
C         32.79078        35.95261        -0.31033
C         31.57903        35.22188        -0.38115
C         32.83577        37.36045        -0.54304
C         31.63100        38.06793        -0.86054
C         32.83289        40.16933        -0.76719
C         31.59160        39.46739        -0.88832
C         32.83744        41.57549        -0.91204
C         31.59913        42.35894        -0.68992
C         32.83630        44.61245        -0.02462
C         31.60284        43.81843        -0.32443
C         32.68800        45.88995         0.71393
C         31.47636        46.65460         0.30803
C         32.70474        48.71089         0.79389
C         31.52141        48.02593         0.39814
C         35.47964        23.44880         1.61554
C         35.29627        24.49017         0.59446
C         34.04670        25.30453         0.49079
C         35.25304        27.15281        -0.68928
C         34.01833        26.51948        -0.16033
C         35.23714        28.71456        -0.64024
C         33.99751        29.44410        -0.25104
C         35.24387        31.56805         0.22686
C         34.05044        30.88749        -0.01750
C         35.24520        33.02155         0.53684
C         33.95677        33.77607         0.38843
C         35.32225        35.96996         0.05110
C         34.00732        35.29200         0.20173
C         35.32028        37.36434        -0.25790
C         34.07560        38.06215        -0.46763
C         35.31577        40.20071        -0.66063
C         34.07910        39.47455        -0.65586
C         35.29706        41.59399        -0.86201
C         34.06227        42.18355        -1.14207
C         35.35422        44.63106         0.03759
C         34.06537        44.29127        -0.52031
C         35.33009        45.71068         1.16575
C         33.97110        46.58527         1.16733
C         35.01022        48.90082         1.56988
C         33.88501        48.08681         1.13972
C         35.41378        50.15620         1.18249
C         37.91452        23.33097         1.19258
C         36.68799        22.85254         1.79910
C         37.88354        24.54145         0.46878
C         36.58024        25.08719         0.04991
C         37.74889        26.92047        -1.01342
C         36.53668        26.42837        -0.55414
C         37.76198        28.99979        -0.98640
C         36.52358        29.41617        -0.37256
C         37.80018        31.60177         0.03290
C         36.54705        30.86680         0.21290
C         37.82488        33.04711         0.36074
C         36.54217        33.81098         0.52850
C         37.77618        35.96227        -0.03342
C         36.53788        35.26923         0.18855
C         37.78627        37.37519        -0.25345
C         36.55192        38.07935        -0.34371
C         37.78257        40.20799        -0.65702
C         36.57066        39.49959        -0.54950
C         37.80581        41.68221        -0.84008
C         36.50737        42.46734        -0.86981
C         37.80554        44.35358         0.21024
C         36.47326        43.85414        -0.23883
C         37.87950        45.76135         0.75071
C         36.63696        46.48809         1.09431
C         37.98020        48.53931         1.42042
C         36.83401        47.70274         1.68539
C         37.90211        49.98260         1.61453
C         36.71407        50.69234         1.49359
C         40.46349        20.79323         2.36724
C         39.27983        21.40687         2.10632
C         40.35736        23.34252         1.02607
C         39.17875        22.68417         1.42144
C         40.33448        24.64100         0.45262
C         39.08666        25.22844         0.12610
C         40.22127        27.30791        -0.67022
C         39.04148        26.49848        -0.55189
C         40.21867        28.75714        -0.79471
C         39.00051        29.52801        -0.64317
C         40.24402        31.61401        -0.44851
C         39.00377        30.92388        -0.25627
C         40.21940        33.08332        -0.49346
C         39.08198        33.81104         0.13745
C         40.23725        35.97359        -0.19860
C         39.03951        35.28558        -0.03335
C         40.26228        37.39332        -0.35528
C         39.02102        38.09211        -0.38753
C         40.27358        40.21363        -0.62712
C         39.02558        39.51383        -0.54708
C         40.29154        41.66100        -0.62084
C         39.08511        42.37213        -0.56156
C         40.26856        44.49577        -0.24107
C         39.06513        43.76047        -0.29416
C         40.24444        45.91634         0.00454
C         39.10968        46.54894         0.51658
C         40.23838        48.81572         0.46689
C         39.08370        47.95728         0.80182
C         40.34701        50.11560         1.15948
C         39.18685        50.69619         1.70338
C         40.49524        52.62348         2.39364
C         39.28194        51.97202         2.31934
C         43.03576        20.95987         2.46618
C         41.73524        21.34331         1.87815
C         42.86095        23.58717         1.30826
C         41.66637        22.67267         1.17920
C         42.80582        24.73353         0.33776
C         41.55472        25.32389         0.07721
C         42.70764        27.35920        -0.66005
C         41.48759        26.65838        -0.45012
C         42.69460        28.77890        -0.81040
C         41.44318        29.47405        -0.76142
C         42.69784        31.63213        -0.74403
C         41.44047        30.91825        -0.69609
C         42.74253        33.05092        -0.68511
C         41.49401        33.83338        -0.66466
C         42.73543        35.99300        -0.56624
C         41.54091        35.22718        -0.06885
C         42.75958        37.37109        -0.57808
C         41.49852        38.10332        -0.50090
C         42.78425        40.23663        -0.95487
C         41.49745        39.50243        -0.62283
C         42.77097        41.68718        -0.54603
C         41.53977        42.37505        -0.51976
C         42.75593        44.49249        -0.34733
C         41.52384        43.80267        -0.39938
C         42.76132        45.95886        -0.45381
C         41.45342        46.69608        -0.33488
C         42.78725        48.83859         0.12911
C         41.48242        48.16905        -0.06006
C         42.80571        50.19207         0.63589
C         41.60503        50.78016         1.19251
C         42.92741        52.70802         1.96432
C         41.67380        52.04756         1.84524
C         44.17732        21.64805         2.18107
C         45.33498        23.47593         0.90920
C         44.18103        22.86849         1.40893
C         45.24919        24.64115         0.06804
C         44.01384        25.31099        -0.13683
C         45.15852        27.35771        -0.91723
C         43.96285        26.66262        -0.64745
C         45.16836        28.78973        -0.93240
C         43.92383        29.49087        -0.84323
C         45.16890        31.61694        -0.67067
C         43.93068        30.92015        -0.78552
C         45.18975        33.03440        -0.55706
C         43.95529        33.74105        -0.61186
C         45.25962        35.94673        -0.56084
C         43.95465        35.21163        -0.76391
C         45.23131        37.39522        -0.32883
C         44.02597        38.09627        -0.53502
C         45.23532        40.21830        -0.30582
C         44.03808        39.51622        -0.52603
C         45.24248        41.66813        -0.27722
C         43.99631        42.37756        -0.37682
C         45.22874        44.53303        -0.19147
C         43.98932        43.80769        -0.30194
C         45.23001        45.98957        -0.18214
C         44.02291        46.69328        -0.23862
C         45.23045        48.85638        -0.24093
C         43.96975        48.12193        -0.09432
C         45.25452        50.35413         0.14029
C         44.02915        50.90022         0.75349
C         44.06977        52.13878         1.44632
C         47.79592        23.49180         0.71092
C         46.66816        22.99528         1.25220
C         47.79517        24.41159        -0.48542
C         46.44568        25.13494        -0.63194
C         47.68146        27.32309        -1.30424
C         46.39234        26.58714        -1.12369
C         47.66763        28.83531        -1.18226
C         46.38799        29.51356        -0.92720
C         47.64426        31.58559        -0.38753
C         46.41178        30.90812        -0.67624
C         47.63303        33.00028        -0.13341
C         46.42494        33.70346        -0.29912
C         47.66913        35.88800         0.25926
C         46.38885        35.14749        -0.02768
C         47.68330        37.35063         0.06439
C         46.46239        38.07445        -0.09878
C         47.69635        40.19842         0.05660
C         46.46720        39.50509        -0.10115
C         47.69720        41.65179         0.11054
C         46.44107        42.37994        -0.05239
C         47.65608        44.56100         0.31808
C         46.42149        43.81150        -0.01119
C         47.73865        45.99852        -0.02627
C         46.49343        46.71936        -0.16844
C         47.73081        48.88008        -0.41913
C         46.48976        48.10927        -0.26105
C         47.71820        50.29700         0.00798
C         46.59365        50.93815         0.38216
C         50.31959        24.78037        -0.22344
C         49.01354        25.33621        -0.54233
C         50.16819        27.43081        -1.12216
C         48.95418        26.64213        -0.99880
C         50.15669        28.80943        -0.92373
C         48.90843        29.52210        -0.78325
C         50.10405        31.40378         0.31848
C         48.86866        30.84430        -0.35570
C         50.07945        32.93020         0.49831
C         48.85779        33.71224         0.19166
C         50.15961        35.84827         0.30959
C         48.91746        35.10670         0.25628
C         50.15235        37.28284         0.24319
C         48.91196        38.02435         0.13507
C         50.16208        40.13312         0.29692
C         48.91627        39.45952         0.14175
C         50.13175        41.57425         0.55901
C         48.88779        42.32197         0.34941
C         50.22476        44.50185         0.30977
C         48.94140        43.78968         0.51988
C         50.22067        45.91975         0.14255
C         48.97358        46.64076        -0.05165
C         50.32197        48.76917        -0.06595
C         49.05413        48.08409        -0.36020
C         51.46575        25.39907        -0.58515
C         52.68192        27.45238        -1.51420
C         51.40389        26.62555        -1.46279
C         52.65558        28.94053        -1.22148
C         51.38970        29.58352        -0.80669
C         52.63854        31.60775        -0.13509
C         51.39031        30.86862        -0.30998
C         52.63844        32.91405         0.32814
C         51.38788        33.67815         0.58977
C         52.60687        35.87520         0.40431
C         51.39235        35.15638         0.40825
C         52.61939        37.28550         0.27245
C         51.38191        37.99638         0.23950
C         52.63987        40.15695         0.20980
C         51.38598        39.43840         0.27299
C         52.67154        41.56711         0.19600
C         51.46451        42.33676         0.52088
C         52.66555        44.46482         0.03651
C         51.43291        43.79270         0.26428
C         52.68759        45.88904        -0.00584
C         51.45962        46.61162         0.08822
C         51.45745        48.05877         0.11532
C         55.13148        27.46443        -1.27682
C         53.98291        26.76468        -1.43567
C         55.13480        28.88309        -0.98768
C         53.92227        29.59539        -0.84946
C         55.15416        31.58330        -0.13449
C         53.91132        30.92860        -0.37286
C         55.17451        32.96506         0.29345
C         53.90026        33.60459         0.61125
C         55.14170        35.86662         0.39894
C         53.88127        35.17787         0.65915
C         55.10721        37.29326         0.15276
C         53.87388        38.00067         0.17987
C         55.09486        40.12776        -0.13191
C         53.87170        39.42552         0.07215
C         55.09993        41.56837        -0.23476
C         53.88227        42.28078        -0.06567
C         55.10082        44.40951        -0.31612
C         53.88266        43.71607        -0.10591
C         55.10384        45.83799        -0.34938
C         53.94438        46.55060        -0.19385
C         56.35611        29.54480        -0.72431
C         56.36278        30.86940        -0.33477
C         56.34152        33.72261         0.37663
C         56.32483        35.12917         0.43400
C         56.30527        38.01441        -0.07666
C         56.29825        39.38432        -0.22655
C         56.30069        42.29927        -0.46015
C         56.30376        43.67523        -0.49810
O         47.72932        28.16014        -2.49855
O         52.62797        28.43209        -2.61089
O         33.03060        45.98640         2.13233
O         34.08028        43.47631        -1.65767
O         40.56952        48.89197        -0.96662
O         29.61529        31.12886        -1.73609
O         53.87885        34.35567         1.86113
O         37.99607        44.59282         1.65877
O         29.82509        37.51623        -2.47328
O         50.84297        41.95930         1.79081
O         44.81036        35.60200        -1.90412
O         40.60351        33.65703        -1.80308
O         38.76806        33.34038         1.48145
O         48.16336        44.27246         1.67507
O         42.01146        46.39624        -1.65559
O         35.09531        27.98803        -1.89092
O         31.46466        42.77405         0.74562
O         45.11680        49.92323        -1.24409
O         35.78744        24.10177        -0.73158
O         41.82355        21.47110         0.39148
O         46.73538        35.49642         1.34789
O         37.72415        27.98378        -1.94149
O         50.65294        33.28603         1.80964
O         36.66136        29.68138         1.06590
O         33.73749        34.67951         1.51434
O         35.90996        33.40762         1.78560
O         37.25773        42.24676        -2.10921
O         48.47188        48.53325        -1.63055
O         46.20100        25.45780        -2.04166
O         35.83004        48.24030         2.49682
O         32.43524        27.04943        -1.86145
H         33.23821        27.35437        -2.34706
O         42.67284        24.21514         2.63667
H         43.40028        24.85977         2.76745
O         51.20713        26.13182        -2.82440
H         51.33391        26.90545        -3.41824
O         35.33014        44.96790         2.38993
H         34.40045        44.94923         2.72458
O         41.78161        35.00185         1.35863
H         41.67756        35.85552         1.82909
O         29.50741        44.16075        -2.69406
H         28.77041        43.76678        -3.20906
O         47.93338        23.54214        -1.64215
H         47.57457        24.04226        -2.41135
O         50.07262        30.81619         1.65391
H         50.46619        31.49025         2.26024
O         27.57716        40.05224        -2.97422
H         27.75948        39.11249        -3.19178
O         42.84527        40.25070        -2.42884
H         42.06209        40.74516        -2.75243
H         27.02418        27.06654         1.32774
H         25.82718        29.21664         1.13207
H         25.76605        31.60991         0.57858
H         25.67386        33.35925        -0.40283
H         25.69909        35.77148        -0.72119
H         25.86630        37.72006        -0.11799
H         25.83740        40.11819        -0.50818
H         25.76689        41.96584        -1.56950
H         25.75365        44.41044        -1.13547
H         26.93776        46.53884        -0.71755
H         29.07707        25.75274         1.11115
H         29.00023        47.72057        -0.15229
H         32.86465        23.74127         1.47971
H         30.74419        24.91490         1.35049
H         32.66912        49.80954         0.83387
H         30.65442        48.63984         0.12165
H         34.62634        23.13888         2.23536
H         34.73823        50.78530         0.58340
H         36.75654        22.04004         2.53594
H         36.79885        51.78971         1.43800
H         40.48569        19.87525         2.97389
H         38.35664        20.93530         2.47099
H         40.56577        53.60251         2.88915
H         38.38574        52.43172         2.75877
H         43.08168        20.05185         3.08605
H         42.97580        53.68105         2.47327
H         45.13466        21.24980         2.54900
H         45.02324        52.67447         1.54575
H         48.76063        23.09688         1.05873
H         46.75377        22.24568         2.05217
H         48.68031        50.82047         0.09796
H         46.66899        51.96093         0.77873
H         50.37516        23.82488         0.31616
H         50.36476        49.86565        -0.10821
H         52.43781        24.93981        -0.35381
H         52.40221        48.59573         0.27219
H         56.09965        26.94206        -1.27767
H         54.01175        25.67248        -1.55631
H         56.05748        46.36141        -0.50931
H         53.98559        47.64660        -0.23835
H         57.30196        28.99607        -0.83616
H         57.32554        31.36225        -0.14766
H         57.31931        33.23837         0.25186
H         57.29306        35.64294         0.36790
H         57.26419        37.48366        -0.13386
H         57.25317        39.89584        -0.40157
H         57.25031        41.76782        -0.60358
H         57.24237        44.22138        -0.66947
