         640
 CSIRO Nanostructure Databank - Neutral Graphene Oxide Data Set
C         22.96803        27.39530        -0.68101
C         22.94929        28.76378        -0.65512
C         22.93283        31.69394        -0.52052
C         22.90271        33.04289        -0.60450
C         22.98676        35.90307         0.05682
C         22.98016        37.26778         0.32393
C         22.92765        40.21251         0.41436
C         22.91712        41.61600         0.48950
C         22.97408        44.51736         1.27902
C         23.03527        45.83265         1.57728
C         25.41571        24.57557        -0.61416
C         24.22035        25.26552        -0.65643
C         25.43060        27.39974        -0.77484
C         24.20464        26.68085        -0.71140
C         25.41083        28.82590        -0.76584
C         24.16560        29.52284        -0.67052
C         25.40433        31.66803        -0.61871
C         24.16134        30.94256        -0.63058
C         25.39720        33.06243        -0.59428
C         24.14093        33.83495        -0.90574
C         25.36900        35.97484        -0.38437
C         24.16274        35.24568        -0.33762
C         25.35485        37.36142        -0.13521
C         24.14959        38.03664         0.18094
C         25.34807        40.23915         0.28036
C         24.12352        39.50094         0.29877
C         25.33927        41.65916         0.42612
C         24.09658        42.35252         0.50798
C         25.39092        44.52609         0.66570
C         24.05180        43.86605         0.43782
C         25.40333        45.95712         0.87657
C         24.21565        46.62771         1.26956
C         25.41279        48.75064         1.20328
C         24.24400        48.02575         1.42253
C         27.94738        23.13659        -0.41135
C         27.91486        24.53667        -0.58942
C         26.66098        25.25368        -0.65211
C         27.91084        27.36783        -0.87053
C         26.67789        26.67409        -0.77083
C         27.88768        28.82938        -1.24023
C         26.64082        29.56051        -0.82100
C         27.92096        31.68170        -0.68087
C         26.65905        30.94291        -0.68391
C         27.92749        33.08092        -0.52120
C         26.64000        33.82628        -0.24554
C         27.92520        35.94793        -0.42591
C         26.64045        35.25112        -0.81340
C         27.91815        37.40879        -0.40429
C         26.60067        38.14324        -0.29619
C         27.79878        40.24908         0.29340
C         26.59710        39.56247         0.13641
C         27.80450        41.66731         0.44569
C         26.58438        42.36729         0.45953
C         27.84257        44.51090         0.54890
C         26.58036        43.81322         0.57321
C         27.81078        45.96398         0.32812
C         26.59707        46.69935         0.70304
C         27.90451        48.82440         0.79524
C         26.62292        48.10550         0.85542
C         27.96615        50.24960         0.93160
C         30.37553        23.13359        -0.45302
C         29.15456        22.45709        -0.33195
C         30.38694        24.53912        -0.61655
C         29.14774        25.24873        -0.67824
C         30.39021        27.39635        -0.92116
C         29.14405        26.67656        -0.82935
C         30.36285        28.82794        -0.95349
C         29.16513        29.55190        -0.90935
C         30.39575        31.70341        -0.67894
C         29.15830        30.97612        -0.78189
C         30.38820        33.12541        -0.51992
C         29.14174        33.80694        -0.46122
C         30.38343        35.96477        -0.20955
C         29.12566        35.25524        -0.34142
C         30.36336        37.39754        -0.00459
C         29.15728        38.09339        -0.02766
C         30.31596        40.27960         0.30952
C         29.06938        39.47449         0.55659
C         30.25837        41.69786         0.68880
C         29.06793        42.38292         0.61758
C         30.31226        44.56427         0.55866
C         29.05725        43.84012         0.62140
C         30.37877        45.93931         0.45181
C         29.13597        46.71641         0.30614
C         30.41262        48.79536         1.01917
C         29.10906        48.13420         0.65397
C         30.40778        50.26915         0.71419
C         29.17039        50.93427         0.79846
C         32.82690        20.34271        -1.12104
C         31.66032        20.99544        -0.92366
C         32.89201        23.13353        -0.62366
C         31.65276        22.35511        -0.26787
C         32.87599        24.54154        -0.67666
C         31.63251        25.26558        -0.70137
C         32.89754        27.37180        -0.89739
C         31.63447        26.67632        -0.86102
C         32.92685        28.83574        -1.09498
C         31.62082        29.58646        -1.09720
C         32.86221        31.72069        -0.68902
C         31.63214        31.02678        -0.79348
C         32.85578        33.14191        -0.50493
C         31.62447        33.84391        -0.43512
C         32.86488        35.99497        -0.17528
C         31.61017        35.27644        -0.26057
C         32.83660        37.43252         0.08055
C         31.61984        38.08736         0.20579
C         32.84427        40.28373         0.75797
C         31.62277        39.56808         0.29669
C         32.80720        41.62830         1.03489
C         31.50799        42.41037         1.12155
C         32.87219        44.46178         0.20000
C         31.56182        43.77240         0.44113
C         32.87899        45.94390         0.33175
C         31.64827        46.65291         0.43520
C         32.87210        48.77582         0.51395
C         31.65282        48.06231         0.56404
C         32.88011        50.23014         0.47871
C         31.65222        50.94926         0.51005
C         32.86106        53.02515         0.07811
C         31.68186        52.36120         0.30805
C         35.38311        18.85544        -0.96259
C         35.33331        20.28261        -0.89247
C         34.10612        20.99104        -0.89125
C         35.34703        23.12805        -0.80461
C         34.10720        22.41498        -0.74850
C         35.33100        24.54317        -0.83227
C         34.12205        25.25232        -0.77656
C         35.37709        27.42276        -0.76213
C         34.11014        26.69413        -0.81304
C         35.37380        28.88129        -0.68342
C         34.16020        29.58736        -0.78930
C         35.33592        31.73794        -0.57127
C         34.11541        31.00662        -0.69880
C         35.32449        33.16321        -0.51588
C         34.10257        33.86507        -0.45247
C         35.34829        36.04901        -0.38462
C         34.07052        35.29959        -0.32272
C         35.34238        37.52557        -0.04667
C         34.06533        38.18777         0.30488
C         35.31934        40.13618         1.26030
C         34.06699        39.49457         0.77356
C         35.33716        41.66037         1.44098
C         34.03999        42.46684         1.35002
C         35.39560        44.46297         0.57716
C         34.16745        43.63238         0.30678
C         35.36821        45.94256         0.84434
C         34.08928        46.65396         0.47402
C         35.38733        48.79448         0.76122
C         34.09225        48.05585         0.50748
C         35.36346        50.22657         0.27960
C         34.11513        50.92665         0.27931
C         35.34205        53.03622        -0.15674
C         34.10511        52.33621         0.05660
C         35.36680        54.44803        -0.33258
C         37.80095        18.85404        -0.58062
C         36.56544        18.17504        -0.81942
C         37.80513        20.26797        -0.57185
C         36.57590        20.99474        -0.74935
C         37.81546        23.13885        -0.55992
C         36.57926        22.40684        -0.76579
C         37.81742        24.52184        -0.55230
C         36.62206        25.26188        -1.11263
C         37.85229        27.45146        -0.76000
C         36.56884        26.73128        -0.77770
C         37.85569        28.89654        -0.49091
C         36.59618        29.60570        -0.53083
C         37.79321        31.74482        -0.20745
C         36.57324        31.02285        -0.47812
C         37.84155        33.12941        -0.22847
C         36.63752        33.89110        -0.72438
C         37.82048        36.00761        -0.04902
C         36.62568        35.32710        -0.27245
C         37.82840        37.41988         0.28364
C         36.60635        38.12743         0.40894
C         37.80674        39.81676         1.60196
C         36.57749        39.36332         1.07921
C         37.81364        41.94905         1.66072
C         36.60192        42.42594         1.22966
C         37.86170        44.48893         0.62433
C         36.59243        43.79746         0.74828
C         37.81829        45.85149        -0.03528
C         36.60082        46.66209         0.34610
C         37.84183        48.76606         0.05511
C         36.61192        48.02511         0.30759
C         37.82666        50.16855        -0.04201
C         36.56687        50.89493         0.01217
C         37.80136        53.02603        -0.37393
C         36.56978        52.31992        -0.19019
C         37.79764        54.44342        -0.47669
C         36.55234        55.12733        -0.47598
C         40.26941        16.01453        -0.10324
C         39.06092        16.71958        -0.29026
C         40.22359        18.86366        -0.02434
C         39.02052        18.12054        -0.30728
C         40.23614        20.24197        -0.07595
C         39.03344        20.98796        -0.35027
C         40.27615        23.13109        -0.21983
C         39.04117        22.40003        -0.33685
C         40.30175        24.50992        -0.11128
C         38.99775        25.25990         0.02020
C         40.32737        27.42004        -0.04653
C         39.12147        26.68494        -0.46916
C         40.29074        28.81710         0.03735
C         39.03769        29.52780        -0.12276
C         40.28492        31.71045         0.38693
C         38.97322        30.96320         0.20424
C         40.29178        33.15749         0.15289
C         39.07116        33.85556        -0.01753
C         40.30354        35.99175         0.16715
C         39.07495        35.28633        -0.00244
C         40.31173        37.39436         0.41803
C         39.06525        38.07900         0.57057
C         40.30279        40.15441         1.55916
C         39.05191        39.36712         1.16532
C         40.26244        41.67893         1.23765
C         39.11166        42.45497         1.26361
C         40.32943        44.52173         0.54286
C         39.07242        43.84632         0.81399
C         40.31394        45.93260         0.25025
C         39.09712        46.63112         0.12910
C         40.32004        48.76422        -0.04645
C         39.08308        48.04251         0.02620
C         40.29672        50.18874        -0.22744
C         39.05769        50.88893        -0.24107
C         40.26581        53.00911        -0.64369
C         39.04654        52.30707        -0.41467
C         40.26513        54.45819        -0.69911
C         39.04259        55.17189        -0.55095
C         40.27310        57.27840        -0.41460
C         39.07921        56.58798        -0.43336
C         42.70979        15.97800         0.19101
C         41.45855        16.67029         0.16885
C         42.75337        18.83186         0.18926
C         41.44322        18.13917         0.50155
C         42.76763        20.23360         0.13081
C         41.47758        21.00180         0.34176
C         42.79612        23.10874        -0.04381
C         41.54677        22.34190        -0.38873
C         42.77426        24.53037         0.04633
C         41.53874        25.24602         0.01280
C         42.76921        27.37612         0.31818
C         41.54251        26.67358         0.13271
C         42.76433        28.81827         0.36958
C         41.52483        29.53829         0.26878
C         42.76203        31.66594         0.32034
C         41.53965        30.94510         0.31257
C         42.74991        33.07974         0.20126
C         41.54077        33.83618         0.11626
C         42.75853        36.00242         0.23372
C         41.54496        35.27247         0.13176
C         42.77527        37.38567         0.49231
C         41.53651        38.12589         0.64640
C         42.85563        40.20589         1.23172
C         41.54959        39.47826         1.01355
C         42.81127        41.66111         0.81357
C         41.59125        42.43715         1.25060
C         42.76710        44.51319         0.41639
C         41.52941        43.82779         0.65347
C         42.76544        45.92089         0.26589
C         41.55492        46.64605         0.19543
C         42.79750        48.77755        -0.16043
C         41.54906        48.06776         0.01679
C         42.78357        50.19672        -0.39229
C         41.52122        50.89859        -0.42107
C         42.74412        52.97068        -1.02950
C         41.48746        52.28638        -0.68372
C         42.74472        54.51034        -1.07433
C         41.47922        55.19009        -0.77702
C         42.75844        57.28395        -0.54787
C         41.50163        56.58963        -0.58282
C         43.90275        16.65210         0.18953
C         45.20605        18.79790         0.04069
C         43.95897        18.09543         0.13149
C         45.21932        20.22534         0.03113
C         43.98545        20.93943         0.04020
C         45.24308        23.08940         0.13283
C         43.99556        22.39329         0.04519
C         45.24069        24.51351         0.19652
C         44.00921        25.23608         0.19037
C         45.25372        27.34298         0.44492
C         44.00679        26.65520         0.33878
C         45.23223        28.78705         0.88912
C         43.97738        29.53379         0.50828
C         45.24375        31.66852         0.54514
C         44.00324        30.94524         0.44279
C         45.28400        33.06553         0.39952
C         44.03439        33.76231         0.04086
C         45.28791        35.95205         0.36732
C         44.02929        35.28484         0.03979
C         45.26477        37.35417         0.48239
C         44.02968        38.08152         0.55849
C         45.25520        40.18644         0.40867
C         44.05441        39.48208         0.68075
C         45.24038        41.62772         0.26103
C         43.98089        42.34071         0.45465
C         45.19720        44.47402        -0.06780
C         43.99206        43.77504         0.31000
C         45.21592        45.86626        -0.15172
C         44.06544        46.66834         0.37374
C         45.23406        48.74990        -0.46149
C         44.00982        48.07583        -0.16334
C         45.24953        50.17882        -0.52702
C         44.00578        50.89632        -0.50303
C         45.21271        53.04231        -0.78268
C         44.02444        52.31473        -0.74757
C         45.22519        54.47293        -0.88547
C         44.01821        55.21094        -0.87056
C         43.95738        56.61949        -0.64598
C         47.64691        18.79874        -0.00990
C         46.45675        18.11335        -0.00789
C         47.68922        20.22305         0.05371
C         46.46610        20.93694         0.05828
C         47.71089        23.08350         0.19883
C         46.47386        22.37447         0.12800
C         47.71667        24.50766         0.25892
C         46.47906        25.21812         0.25052
C         47.74396        27.35982         0.21705
C         46.45397        26.64440         0.33250
C         47.76226        28.85265         0.38987
C         46.49142        29.56010         0.61820
C         47.72644        31.68405         0.77825
C         46.49264        30.94864         0.65562
C         47.73655        33.08124         0.77997
C         46.50242        33.79004         0.52630
C         47.72934        35.94042         0.62887
C         46.49778        35.22018         0.47856
C         47.73359        37.34860         0.52737
C         46.49861        38.06296         0.46643
C         47.70782        40.12247        -0.11868
C         46.46179        39.46036         0.27687
C         47.68256        41.61008        -0.31662
C         46.41020        42.31925        -0.06739
C         47.63718        44.38135        -0.60418
C         46.42520        43.73368        -0.27835
C         47.60108        45.76870        -1.08757
C         46.34165        46.55720        -0.77697
C         47.65579        48.70341        -0.91998
C         46.42747        48.03077        -0.70119
C         47.68060        50.14137        -0.84587
C         46.47841        50.85874        -0.66237
C         47.74781        53.02675        -0.93984
C         46.50619        52.34537        -0.41683
C         47.68538        54.45892        -1.04397
C         46.50414        55.14094        -0.95803
C         50.18611        20.25251         0.16115
C         48.94350        20.93781         0.13626
C         50.19291        23.06075         0.33011
C         48.95042        22.35734         0.21810
C         50.19921        24.49067         0.41482
C         48.97271        25.21390         0.36911
C         50.22372        27.34404         0.53144
C         49.00574        26.62828         0.40898
C         50.22882        28.79486         0.70821
C         49.02102        29.49765         0.76003
C         50.23871        31.67035         1.33219
C         48.95476        30.92640         1.10894
C         50.23685        33.13779         1.13478
C         48.97238        33.82748         0.98571
C         50.16418        36.00821         1.13317
C         48.94414        35.22572         0.89283
C         50.20141        37.42255         0.73941
C         48.98077        38.08440         0.48998
C         50.19736        40.18339         0.09833
C         48.98467        39.46060         0.17937
C         50.18356        41.63189        -0.08637
C         48.96002        42.34357        -0.21439
C         50.12807        44.50923        -0.49614
C         48.90791        43.74335        -0.42216
C         50.14239        45.82743        -0.92429
C         48.89353        46.49894        -1.44685
C         50.09076        48.68519        -1.25563
C         48.88041        47.98921        -1.12522
C         50.09029        50.11759        -1.31608
C         48.91716        50.84097        -1.08789
C         50.17862        52.96070        -1.42350
C         48.91433        52.30109        -1.14453
C         51.38214        20.93022         0.26740
C         52.66840        23.06417         0.49884
C         51.42287        22.34566         0.35528
C         52.65496        24.46062         0.62437
C         51.43222        25.19740         0.53956
C         52.70010        27.34209         0.67402
C         51.44631        26.62496         0.60531
C         52.69263        28.78868         0.68219
C         51.48253        29.48485         0.82558
C         52.70629        31.70524         0.73393
C         51.56875        30.91567         1.33376
C         52.70024        33.07993         0.77652
C         51.45911        33.79820         1.04491
C         52.72895        35.99961         0.85576
C         51.49849        35.25518         1.17197
C         52.69375        37.38655         0.69631
C         51.43152        38.11073         0.59960
C         52.69895        40.18792        -0.10369
C         51.41861        39.48753         0.26955
C         52.64281        41.68642         0.07343
C         51.41444        42.34889        -0.02336
C         52.62978        44.43740        -0.55961
C         51.38056        43.86695         0.07027
C         52.63208        45.81262        -1.12578
C         51.36342        46.57996        -1.09466
C         52.62105        48.69124        -1.35839
C         51.35683        47.95188        -1.31506
C         52.60863        50.10632        -1.45650
C         51.32388        50.78884        -1.87973
C         51.30902        52.27992        -1.69613
C         55.13163        23.00569         0.52943
C         53.93577        22.37273         0.41839
C         55.21547        24.42189         0.91095
C         53.90319        25.19012         0.91896
C         55.16856        27.36150         0.69542
C         53.91572        26.65981         0.76659
C         55.14931        28.80720         0.56310
C         53.93807        29.49754         0.58722
C         55.20407        31.69938         0.42940
C         53.90319        30.96204         0.20845
C         55.19825        33.12708         0.46246
C         53.93782        33.84402         0.60882
C         55.22454        35.95374         0.85438
C         53.94218        35.23118         0.74055
C         55.20981        37.46580         0.87328
C         53.91961        38.16617         0.65870
C         55.14338        40.31569         0.86892
C         53.91594        39.52290         0.48270
C         55.12351        41.74863         0.38775
C         53.88840        42.39777         0.10316
C         55.09389        44.52355        -0.18068
C         53.91159        43.79467        -0.17233
C         55.01371        46.03039        -0.27636
C         53.97195        46.51915        -1.31508
C         55.06514        48.75242        -1.08612
C         53.86143        48.02630        -1.21713
C         55.01251        50.15592        -1.09086
C         53.80411        50.81650        -1.30850
C         57.55960        24.57182        -0.10529
C         56.54470        25.17671         0.83397
C         57.58259        27.38886         0.28898
C         56.38345        26.66730         0.57468
C         57.59478        28.82549         0.37336
C         56.40473        29.52877         0.45793
C         57.65911        31.69006         0.32753
C         56.40735        30.98769         0.42466
C         57.65524        33.11153         0.20759
C         56.42118        33.82903         0.34123
C         57.62179        35.99488         0.20742
C         56.46388        35.27310         0.43903
C         57.64233        37.44806         0.25983
C         56.43945        38.16797         0.47987
C         57.58925        40.31944         0.33747
C         56.42838        39.59977         0.48581
C         57.58879        41.77354         0.75884
C         56.31659        42.46540         0.34170
C         57.57333        44.57217        -0.04746
C         56.33601        43.86181         0.04945
C         57.56296        45.96938        -0.39538
C         56.34615        46.68440        -0.55346
C         57.58364        48.68865        -1.15454
C         56.34688        48.03764        -0.93022
C         58.61707        25.30767        -0.52515
C         59.85843        27.47546        -0.65999
C         58.71383        26.71396        -0.22836
C         59.96510        28.80180        -0.39846
C         58.94586        29.49290         0.48019
C         60.08082        31.70762         0.17095
C         58.89729        30.99097         0.29422
C         60.07124        33.10286        -0.00402
C         58.87908        33.81412         0.00296
C         60.09891        36.05408        -0.14984
C         58.82799        35.28205        -0.36651
C         60.07800        37.41521        -0.04963
C         58.86096        38.15329         0.07245
C         60.06592        40.38216         0.44611
C         58.86617        39.65780        -0.11136
C         60.05887        41.73609         0.56710
C         58.85375        42.50586         0.40008
C         60.04712        44.61137        -0.13734
C         58.82691        43.87785         0.09744
C         60.03245        45.93365        -0.47397
C         58.79663        46.64974        -0.61825
C         58.78156        48.01008        -0.99602
O         35.35984        37.08214        -1.45130
O         52.51749        44.62476        -2.01090
O         39.45691        31.30265         1.54661
O         55.33276        36.70697         2.12748
O         42.69957        53.69568        -2.29812
O         35.23724        40.77157         2.59469
O         37.81543        40.85540         2.54332
O         27.22250        37.97939        -1.63413
O         38.75625        26.96751        -1.85549
O         54.53780        24.72117         2.17955
O         46.60086        45.99748        -2.13697
O         32.07957        43.91631        -0.92251
O         44.11304        34.52593        -1.21797
O         47.63945        40.70103        -1.48135
O         32.31207        29.25881        -2.36906
O         50.83931        35.73056         2.39976
O         47.79425        28.23579        -0.97817
O         28.40860        46.40071        -0.94075
O         49.43167        31.25166         2.49306
O         31.01698        40.11178        -0.96197
O         27.82950        28.84158        -2.72409
H         28.67529        28.46565        -3.05131
O         29.07518        39.27149         2.02011
H         28.21801        38.87128         2.27828
O         24.14841        34.01339        -2.36982
H         25.02440        34.42038        -2.60345
O         54.52827        46.50330         1.01401
H         55.14505        46.18777         1.70722
O         55.13439        40.39340         2.34236
H         55.13672        39.47282         2.68636
O         52.84137        39.98854        -1.56627
H         52.06640        40.41270        -1.99462
O         31.74147        22.10147         1.18523
H         32.57188        21.60189         1.33867
O         36.79335        25.20387        -2.57773
H         37.58257        25.76481        -2.77863
O         41.64180        21.99893        -1.80723
H         41.67034        22.83406        -2.31942
O         36.80050        33.95986        -2.19340
H         36.16256        34.62582        -2.53065
O         35.43738        46.04446         2.31332
H         35.39040        47.00901         2.53842
O         43.08608        40.22632         2.71719
H         42.27138        39.85602         3.13934
O         51.95605        30.76740         2.74036
H         51.11437        30.72916         3.25418
O         35.49453        48.87097         2.23772
H         36.31333        49.37065         2.44497
O         44.31208        46.82998         1.83146
H         43.49361        47.20160         2.22495
O         41.35929        21.24335         1.76722
H         41.29111        20.35708         2.19537
O         26.58384        34.02150         1.21351
H         26.60763        33.13575         1.63380
O         57.13553        25.08039         2.17094
H         56.38283        25.15031         2.80348
O         58.62645        35.28377        -1.83486
H         58.67676        36.21798        -2.13040
O         26.63567        35.18551        -2.26988
H         26.78099        36.10963        -2.58516
O         31.28185        42.71091         2.53485
H         32.14399        43.04078         2.89949
O         37.68722        45.57596        -1.47655
H         37.71046        46.43688        -1.94565
O         30.47915        48.70618         2.50890
H         29.75748        49.27289         2.85809
O         41.83581        42.68665         2.69248
H         42.31689        41.89021         3.03621
O         57.58202        41.74778         2.23156
H         56.72657        41.32548         2.50730
O         51.25330        50.56677        -3.33357
H         50.39156        50.91721        -3.64353
O         53.72200        30.95692        -1.26342
H         54.52479        30.55126        -1.65554
O         34.41201        42.97996        -0.95859
H         33.56437        43.00520        -1.46709
O         46.59521        52.48309         1.05694
H         47.43658        52.06269         1.33626
O         58.93565        39.86568        -1.58285
H         58.09440        39.53476        -1.96421
O         33.88925        43.09285         2.65152
H         34.24594        42.45819         3.31376
O         59.39745        29.27711         1.86274
H         59.36572        28.31093         2.03148
O         51.43519        44.21398         1.48597
H         50.68626        43.77040         1.93608
O         40.40291        40.06223         3.02882
H         39.57581        40.47064         3.38254
O         49.01555        46.43786        -2.89881
H         48.09705        46.45644        -3.25623
O         23.68738        44.15971        -0.95906
H         23.75685        45.13081        -1.07992
O         41.32190        18.24086         1.98156
H         42.02875        17.67758         2.36471
O         54.47194        46.21271        -2.63066
H         53.95911        45.43645        -2.95841
O         38.72744        25.40390         1.46142
H         38.79982        24.51403         1.86802
O         45.17564        28.68097         2.37436
H         45.06537        29.58962         2.72879
H         22.02718        26.82667        -0.65963
H         21.98159        29.28061        -0.62158
H         21.98808        31.15483        -0.36642
H         21.93285        33.55799        -0.57124
H         22.03985        35.35250         0.13216
H         22.03278        37.74457         0.60830
H         21.96411        39.68550         0.41407
H         21.94713        42.13154         0.51839
H         22.07131        43.94161         1.53140
H         22.19926        46.32761         2.09492
H         25.38618        23.47990        -0.55406
H         23.26649        24.71982        -0.62435
H         25.38651        49.84031         1.33810
H         23.32757        48.55292         1.72500
H         27.01611        22.56495        -0.31049
H         27.04027        50.83207         1.02337
H         29.14521        21.37313        -0.15452
H         29.13073        52.03132         0.74846
H         32.81313        19.31738        -1.51793
H         30.70838        20.48836        -1.13707
H         32.82584        54.10929        -0.08757
H         30.74713        52.93632         0.31801
H         34.45536        18.28521        -1.10595
H         34.43154        55.02155        -0.34221
H         36.54604        17.07807        -0.86362
H         36.52154        56.21713        -0.60202
H         40.27467        14.92225        -0.23773
H         38.15510        16.13532        -0.49788
H         40.28055        58.36892        -0.27645
H         38.14596        57.15221        -0.30780
H         42.70248        14.87872         0.13795
H         42.74853        58.37170        -0.38798
H         44.83530        16.07322         0.17721
H         44.88927        57.19204        -0.54181
H         48.58058        18.22254        -0.04451
H         46.48254        17.01622        -0.04005
H         48.60531        55.03260        -1.22244
H         46.52470        56.23543        -1.04955
H         50.21297        19.15677         0.10296
H         50.22084        54.05802        -1.38599
H         52.31130        20.34667         0.29577
H         52.22112        52.84615        -1.93148
H         56.05518        22.43784         0.35213
H         53.93935        21.30160         0.17609
H         55.92671        50.74916        -0.95248
H         53.81255        51.91303        -1.36225
H         57.51659        23.50036        -0.34357
H         57.60189        49.73983        -1.47338
H         59.41219        24.84593        -1.12990
H         60.64530        26.95488        -1.22695
H         60.85531        29.35541        -0.72987
H         61.04680        31.18475         0.18815
H         61.03089        33.61414        -0.15712
H         61.06646        35.54612        -0.26371
H         61.03239        37.96168        -0.05479
H         60.99819        39.82826         0.62632
H         60.99998        42.25322         0.81203
H         61.00872        44.08905        -0.04165
H         60.97586        46.47156        -0.64783
H         59.73525        48.52680        -1.17670
