         762
 CSIRO Nanostructure Databank - Neutral Graphene Oxide Data Set
C         23.33708        25.32093         4.08072
C         22.16716        26.03171         4.16893
C         23.27921        28.15500         3.70241
C         22.13050        27.43869         3.90511
C         23.24015        29.52114         3.10445
C         22.05442        30.39050         3.22992
C         23.16399        32.25662         2.04920
C         22.03406        31.65204         2.73164
C         23.04351        33.47916         1.35553
C         21.90930        34.35617         1.39563
C         22.87551        36.07515        -0.13823
C         21.84527        35.56121         0.72962
C         22.87167        37.38137        -0.65290
C         21.89015        38.35759        -0.22780
C         22.82575        40.17338        -1.65391
C         21.87058        39.64573        -0.65554
C         22.99094        41.62277        -1.88875
C         21.84271        42.40943        -1.74671
C         23.03282        44.30754        -2.57214
C         21.83697        43.74399        -2.14643
C         23.11105        45.73567        -3.06586
C         21.85129        46.54053        -3.12389
C         23.01493        48.45093        -2.15814
C         21.93613        47.89735        -2.84954
C         25.88535        23.89283         4.02152
C         25.79434        25.28879         3.64324
C         24.58466        25.97618         3.82569
C         25.88519        28.14668         3.44968
C         24.57972        27.44970         3.80689
C         25.84553        29.60661         3.07959
C         24.51768        30.20445         2.69672
C         25.61536        32.19884         1.72837
C         24.45425        31.60488         2.18408
C         25.51256        33.28194         0.73899
C         24.14521        33.89027         0.47385
C         25.28157        35.75525        -0.93065
C         24.03071        35.16161        -0.34933
C         25.22929        37.08395        -1.60927
C         23.94596        37.87215        -1.56923
C         25.25707        39.94003        -2.51793
C         23.97566        39.31466        -2.04440
C         25.42775        41.34747        -2.64523
C         24.22402        42.15671        -2.37383
C         25.50330        44.26904        -2.71152
C         24.24219        43.55954        -2.59233
C         25.42820        45.68321        -2.30008
C         24.20425        46.33943        -2.24747
C         25.25815        48.28656        -1.06248
C         23.97507        47.56643        -1.41572
C         25.19920        49.52152        -0.40279
C         28.06598        23.63330         2.92665
C         26.98010        23.13371         3.78839
C         28.10567        25.12657         2.64622
C         26.99031        25.96734         3.16480
C         28.38515        28.04771         2.81585
C         27.04644        27.33957         3.02819
C         28.27601        29.44713         2.24165
C         27.09280        30.26266         2.57353
C         28.15636        32.20776         1.28745
C         26.96480        31.65107         2.00795
C         28.03385        33.34183         0.36236
C         26.73975        34.05437         0.35521
C         27.77580        35.74485        -1.25709
C         26.61825        35.31444        -0.43840
C         27.81783        37.18079        -1.73127
C         26.46400        37.75944        -2.05221
C         28.15657        39.98418        -3.01504
C         26.27851        38.93914        -2.74710
C         27.94065        41.41503        -3.10799
C         26.70360        42.08873        -2.96940
C         27.92692        44.44233        -2.89372
C         26.70775        43.58290        -2.90230
C         27.84427        45.85675        -2.40757
C         26.58881        46.38780        -1.89059
C         27.72295        48.42243        -0.98367
C         26.52404        47.70715        -1.34688
C         27.63465        49.67672        -0.31008
C         26.35591        50.20451        -0.03112
C         30.81641        21.07803         3.64121
C         29.60593        21.68707         3.65577
C         30.54004        23.50954         2.15954
C         29.32544        22.82526         2.77140
C         30.48291        24.96520         1.88932
C         29.38859        25.75513         2.21229
C         30.55911        27.83396         1.59276
C         29.44631        27.20404         2.11926
C         30.62942        29.28330         1.46511
C         29.39700        30.05547         1.63744
C         30.55668        32.11568         0.73916
C         29.35135        31.37474         1.14083
C         30.46680        33.30565        -0.13675
C         29.10730        33.79212        -0.39181
C         30.70177        35.95985        -1.65238
C         28.83372        34.88862        -1.31219
C         30.52120        37.35163        -1.68393
C         29.14919        37.96863        -1.86012
C         30.33797        40.25695        -1.97988
C         29.20090        39.38447        -2.36648
C         30.40717        41.53918        -2.72898
C         29.25830        41.99388        -3.32401
C         30.45750        44.76385        -3.08494
C         29.15429        44.14602        -3.43357
C         30.42940        46.10028        -2.40338
C         29.08710        46.70654        -2.17174
C         30.17526        48.40468        -0.68883
C         29.00391        47.85490        -1.24456
C         30.11203        49.71463        -0.08099
C         28.85573        50.37566         0.04929
C         30.01622        52.37558         0.84696
C         28.84527        51.71026         0.52112
C         33.24318        19.51908         3.31743
C         33.16337        20.83189         2.78886
C         31.94409        21.58880         2.88701
C         33.02869        23.47007         1.74063
C         31.86474        22.86739         2.31177
C         32.97897        24.82931         1.23866
C         31.67999        25.53274         1.23854
C         33.00846        27.68252         0.89386
C         31.69076        27.05449         1.04083
C         33.06279        29.14000         1.00263
C         31.80195        29.90441         1.09409
C         33.03689        31.96889         0.19142
C         31.87877        31.36014         0.85563
C         32.95237        33.32439        -0.19248
C         31.67678        33.96308        -0.46166
C         32.94066        36.09997        -0.85478
C         31.76458        35.31676        -1.00072
C         32.91335        37.49736        -1.13842
C         31.66935        38.13155        -1.40901
C         32.91100        40.29197        -1.80931
C         31.62830        39.60894        -1.51058
C         32.91839        41.55019        -2.42593
C         31.65529        42.36613        -2.57241
C         32.89316        44.74312        -2.62615
C         31.65011        43.88874        -2.70896
C         32.84103        45.93548        -1.85954
C         31.56323        46.56151        -1.57869
C         32.64911        48.27240        -0.16975
C         31.43954        47.70309        -0.80809
C         32.60067        49.69710         0.27524
C         31.30124        50.40929         0.27191
C         32.53303        52.42002         1.08211
C         31.27253        51.73200         0.74285
C         32.49746        53.63408         1.87174
C         35.50242        19.25533         2.45720
C         34.38401        18.76128         3.16465
C         35.47803        20.56571         1.91850
C         34.28862        21.37079         2.08921
C         35.30720        23.27482         0.79880
C         34.21076        22.71396         1.61756
C         35.36407        24.74281         0.56732
C         34.13701        25.48404         0.78090
C         35.37173        27.59071         0.18259
C         34.15167        26.92997         0.62319
C         35.37463        28.95959        -0.04246
C         34.30782        29.82589         0.45428
C         35.38509        31.89010        -0.46331
C         34.24834        31.24498         0.01961
C         35.42518        33.32372        -0.50310
C         34.18307        34.04664        -0.37000
C         35.37595        36.23018        -0.40760
C         34.16040        35.44606        -0.52264
C         35.38779        37.62975        -0.84323
C         34.15711        38.24720        -1.14537
C         35.38970        40.31915        -1.66323
C         34.14752        39.61794        -1.56023
C         35.38659        41.62446        -2.22610
C         34.18616        42.06264        -2.78782
C         35.35257        44.77015        -2.48792
C         34.15677        44.25983        -2.98154
C         35.30560        45.99824        -1.77581
C         34.04400        46.54141        -1.42851
C         35.28009        48.43465        -0.24163
C         33.99310        47.66281        -0.48388
C         35.18151        49.86405         0.14151
C         33.83090        50.54928         0.03480
C         35.00061        52.65180         0.85023
C         33.75586        51.87112         0.74589
C         34.91662        53.99785         1.59094
C         33.61981        54.32476         2.19625
C         38.09027        16.48485         3.06873
C         36.88926        17.16352         3.09025
C         37.95623        19.07320         1.79149
C         36.69298        18.39364         2.30406
C         37.90179        20.49461         1.39530
C         36.66597        21.13537         1.31112
C         37.78045        23.11483         0.09400
C         36.54293        22.44119         0.61391
C         37.78008        24.59941        -0.08289
C         36.53244        25.35043         0.10254
C         37.69931        27.40100        -0.62645
C         36.55505        26.78762        -0.14856
C         37.79984        28.88118        -0.62238
C         36.51839        29.62456        -0.70235
C         37.87117        31.80821        -1.07737
C         36.57108        31.11144        -0.87862
C         37.81163        33.28587        -1.40126
C         36.62995        33.99156        -0.77072
C         37.92873        36.18967        -0.92493
C         36.73882        35.41351        -0.53566
C         37.88275        37.58158        -0.93130
C         36.64263        38.31970        -0.97077
C         37.87644        40.43569        -1.51663
C         36.64053        39.69224        -1.34905
C         37.90566        41.75313        -1.97997
C         36.60992        42.46911        -2.13627
C         37.87645        44.69837        -2.71186
C         36.59990        43.96094        -2.30171
C         37.79417        46.25141        -2.23507
C         36.53878        46.66782        -1.47693
C         37.73330        48.68407        -0.70513
C         36.54082        47.91054        -0.82983
C         37.61232        50.08794        -0.27249
C         36.32690        50.62937         0.22475
C         37.49639        52.66830         1.09336
C         36.31726        51.99323         0.70932
C         37.39232        53.94380         1.77784
C         36.18618        54.54724         2.10676
C         37.26186        56.52390         3.08780
C         36.15491        55.77009         2.88533
C         40.51420        14.90222         2.46430
C         40.51554        16.31923         2.38098
C         39.28698        17.05245         2.56319
C         40.51674        19.25390         1.99061
C         39.24950        18.49630         2.25952
C         40.37260        20.49241         1.18231
C         39.14603        21.09174         0.95131
C         40.31921        23.16718         0.05540
C         39.09311        22.38687         0.21925
C         40.24428        24.46656        -0.70117
C         38.95133        25.22449        -0.44274
C         40.21627        27.37569        -1.16499
C         38.93117        26.63673        -0.88028
C         40.23426        28.86535        -1.39584
C         39.05578        29.63638        -0.91320
C         40.33792        31.76148        -1.35462
C         39.04657        31.10682        -1.17452
C         40.38640        33.22970        -1.19307
C         39.11373        34.00001        -1.07080
C         40.34445        36.14717        -1.46140
C         39.14899        35.48281        -1.19001
C         40.39320        37.57084        -1.39025
C         39.20442        38.29056        -0.75187
C         40.42116        40.49281        -1.38054
C         39.13605        39.78859        -1.06598
C         40.35686        41.83959        -1.97592
C         39.14468        42.50806        -2.13328
C         40.32851        44.68513        -2.24576
C         39.15235        43.96177        -2.30368
C         40.28427        46.16369        -2.03518
C         39.01154        46.65267        -1.38559
C         40.19313        48.85598        -0.86357
C         38.99741        48.14176        -1.05744
C         40.15099        50.09779        -0.04555
C         38.87352        50.85599         0.04794
C         40.01558        52.71694         1.21752
C         38.81237        52.08686         0.86718
C         39.97051        53.97584         1.99027
C         38.63302        54.58563         2.28241
C         39.86063        56.79342         2.83132
C         38.55945        56.05947         2.56333
C         39.84798        58.05301         3.57904
C         42.85858        14.82781         1.88815
C         41.67175        14.17418         2.22094
C         42.90939        16.23703         1.80826
C         41.72905        16.98506         2.04107
C         42.92917        19.00838         1.17798
C         41.85714        18.49842         2.11315
C         42.90993        20.44019         0.87802
C         41.58668        21.04053         0.54870
C         42.83898        23.14936        -0.29510
C         41.56039        22.42529        -0.07743
C         42.81710        24.59887        -0.48944
C         41.50232        25.29499        -0.41457
C         42.78461        27.52517        -0.84105
C         41.49237        26.76882        -0.66476
C         42.79598        28.88425        -1.39709
C         41.52351        29.59859        -1.59149
C         42.80949        31.75087        -1.58792
C         41.53213        31.07449        -1.47491
C         42.80868        33.20947        -1.66891
C         41.63667        33.93075        -1.52935
C         42.84186        36.11703        -1.91977
C         41.53487        35.36889        -1.99683
C         42.81458        37.50708        -1.92492
C         41.59823        38.25348        -1.63282
C         42.86119        40.38626        -1.71079
C         41.66598        39.69409        -1.56472
C         42.84492        41.88182        -1.51791
C         41.63960        42.50810        -2.19388
C         42.88834        44.74155        -1.95781
C         41.63926        44.02573        -2.30487
C         42.85902        46.21599        -1.90347
C         41.54268        46.93521        -1.79789
C         42.65545        48.97721        -0.84822
C         41.49220        48.27732        -1.13128
C         42.58293        50.48300        -0.60609
C         41.40710        50.85941         0.26690
C         42.48711        52.97103         1.03280
C         41.31182        52.24054         0.80004
C         42.45493        54.19726         1.77902
C         41.20290        54.78791         2.13350
C         42.34453        56.71726         3.14405
C         41.14349        56.05821         2.71538
C         42.25949        57.95103         3.80673
C         41.01640        58.58880         4.04445
C         45.39440        16.24154         1.42225
C         44.15835        16.90572         1.43161
C         45.31416        18.88676         0.47399
C         44.12345        18.27673         1.00415
C         45.22406        20.22359        -0.22646
C         44.10677        21.08775         0.30186
C         45.32347        23.20103        -0.21796
C         44.01512        22.46090        -0.24865
C         45.21454        24.48282        -1.01946
C         43.98360        25.27133        -0.76004
C         45.28791        27.39855        -1.48258
C         44.08944        26.73936        -0.89292
C         45.23704        28.80413        -1.64739
C         44.00610        29.55779        -1.55187
C         45.27279        31.71572        -1.76632
C         43.99818        31.01552        -1.70869
C         45.25603        33.17296        -1.78387
C         44.07840        33.90151        -1.83971
C         45.29098        36.03852        -2.11773
C         44.08327        35.36892        -1.97335
C         45.34630        37.47892        -2.39621
C         44.03563        38.26437        -2.25730
C         45.29840        40.41307        -1.99269
C         44.09574        39.71293        -1.96207
C         45.32723        41.85877        -1.84734
C         44.13983        42.59635        -1.82189
C         45.31635        44.78080        -1.50067
C         44.09112        44.05292        -1.78895
C         45.31380        46.12658        -1.15680
C         44.09236        46.92008        -1.39824
C         45.20837        48.94156        -0.30368
C         43.94217        48.24823        -0.72311
C         45.19664        50.43891        -0.22494
C         43.89832        51.18644        -0.22531
C         45.00124        52.98765         1.28513
C         43.82210        52.62183         0.37052
C         44.93677        54.13640         2.05731
C         43.66309        54.82412         2.22904
C         44.82076        56.62675         3.42586
C         43.60894        56.04872         2.92822
C         46.55648        16.87154         0.98491
C         47.75503        18.85251        -0.03137
C         46.53579        18.19603         0.47609
C         47.73591        20.18936        -0.42114
C         46.52835        20.98925        -0.32831
C         47.83410        23.12951        -0.62340
C         46.54364        22.34663        -0.50528
C         47.70742        24.36038        -1.54127
C         46.42928        25.16232        -1.55524
C         47.73244        27.26913        -2.00226
C         46.47575        26.64358        -1.71775
C         47.76305        28.75748        -2.18754
C         46.44581        29.53732        -2.05181
C         47.78165        31.62795        -1.39265
C         46.46770        31.00778        -1.82986
C         47.83509        33.14955        -1.58229
C         46.55357        33.89075        -1.76502
C         47.87771        36.06765        -2.24590
C         46.56914        35.30852        -2.23999
C         47.79259        37.52064        -1.89719
C         46.61151        38.20009        -2.13695
C         47.85385        40.40951        -1.77214
C         46.57119        39.67790        -2.16619
C         47.75580        41.82044        -1.35722
C         46.58946        42.52534        -1.58025
C         47.80739        44.72187        -1.04246
C         46.57844        44.01115        -1.51397
C         47.70828        46.13450        -0.64067
C         46.51424        46.84281        -0.73563
C         47.70536        48.94567        -0.04620
C         46.50950        48.24880        -0.43590
C         47.66589        50.27727         0.39433
C         46.44437        51.09069         0.29479
C         47.43853        52.66930         2.06079
C         46.33781        52.38584         1.05050
C         47.39180        54.08956         2.55891
C         46.14371        54.72214         2.64797
C         46.02485        55.99676         3.28986
C         50.20413        18.72886        -0.33104
C         49.02221        18.16095         0.03178
C         50.26421        20.03143        -0.99678
C         48.93380        20.84055        -0.98107
C         50.23880        22.93928        -1.35570
C         49.02396        22.29469        -1.02725
C         50.24568        24.32792        -1.65507
C         48.98249        25.06621        -1.87677
C         50.21992        27.23593        -2.24228
C         48.93300        26.54110        -2.07447
C         50.28189        28.76132        -2.10574
C         49.02653        29.49678        -1.97343
C         50.27688        31.58526        -1.73701
C         49.05152        30.89822        -1.80686
C         50.38015        33.02120        -2.06042
C         49.09599        33.81484        -2.06816
C         50.37144        35.84032        -2.47149
C         49.16282        35.30212        -2.09427
C         50.06765        37.49134        -0.66522
C         48.93887        38.22723        -1.33298
C         50.27695        40.33503        -1.03926
C         48.97992        39.59999        -1.27701
C         50.17510        41.70453        -0.38976
C         48.88012        42.41395        -0.58033
C         50.11541        44.58858         0.06732
C         48.86750        43.89903        -0.37939
C         50.22967        46.04041        -0.24609
C         48.97731        46.83793        -0.46527
C         50.16697        48.80513         0.38612
C         48.98217        48.24158        -0.04989
C         50.19216        50.22846         0.75431
C         48.89730        50.99573         0.77576
C         49.94695        52.79969         2.14510
C         48.81494        52.21201         1.62096
C         49.82074        54.03228         2.88245
C         48.61079        54.66445         3.03331
C         52.79208        20.11097        -0.98621
C         51.52487        20.80080        -1.11412
C         52.75114        22.87175        -1.66251
C         51.48466        22.16244        -1.36421
C         52.70618        24.35504        -1.54795
C         51.49913        25.02521        -2.13312
C         52.66186        27.23906        -1.32307
C         51.42619        26.48980        -1.73277
C         52.72143        28.69945        -1.48687
C         51.54877        29.39994        -1.68258
C         52.79483        31.59218        -1.26234
C         51.50985        30.84995        -1.44424
C         52.81977        33.05605        -1.57064
C         51.69906        33.72568        -1.97941
C         52.88868        36.03693        -1.64249
C         51.70429        35.20279        -2.21033
C         52.69111        37.43243        -1.06085
C         51.42686        38.10829        -0.80618
C         52.60519        40.12275        -0.02310
C         51.40384        39.46633        -0.54474
C         52.56999        41.60082         0.33009
C         51.29354        42.33524         0.09257
C         52.69468        44.49723         0.58973
C         51.33713        43.78689         0.40760
C         52.68691        45.91910        -0.01334
C         51.43659        46.71266         0.24546
C         52.66823        48.74867         0.81745
C         51.42014        48.06678         0.47335
C         52.65565        50.06089         1.30789
C         51.34519        50.70287         1.57430
C         52.56603        52.77310         2.30078
C         51.26946        52.08565         2.14713
C         53.98734        20.70478        -1.23382
C         55.39939        22.78549        -1.75864
C         54.06095        22.09443        -1.70737
C         55.56675        24.02339        -1.12559
C         53.67900        25.07617        -0.92366
C         55.15716        27.11425        -0.99656
C         53.91240        26.49182        -1.09618
C         55.17127        28.58141        -1.08905
C         54.01789        29.32393        -1.33359
C         55.36257        31.54371        -1.30128
C         54.06987        30.80830        -1.46536
C         55.18888        32.91205        -0.69775
C         54.11750        33.74391        -1.35940
C         55.32886        35.80610        -0.48707
C         54.18375        35.24970        -1.28715
C         55.64882        37.13746        -0.61863
C         53.81638        38.25035        -0.98595
C         55.06900        40.09690         0.23505
C         53.89882        39.48781        -0.26388
C         55.05419        41.52824         0.47344
C         53.87188        42.26619         0.32307
C         55.26386        44.44464         0.14328
C         53.91877        43.71673         0.10627
C         55.15164        45.94642         0.31041
C         53.94047        46.64246         0.39030
C         55.11266        48.71065         1.08450
C         53.90702        48.03350         0.71899
C         55.09286        50.07520         1.52164
C         53.85421        50.74696         1.66143
C         53.74581        52.13095         2.10144
C         57.60086        23.13558        -2.68966
C         56.44550        22.35367        -2.58646
C         57.67049        24.43333        -2.15129
C         56.55931        24.96221        -1.44247
C         57.63873        27.08065        -0.91353
C         56.45221        26.38817        -1.03601
C         57.69657        28.50388        -0.50836
C         56.42606        29.29936        -0.72712
C         57.73702        31.38709        -0.24384
C         56.66413        30.76022        -1.14901
C         57.57087        32.78110         0.32813
C         56.23037        33.51177         0.19077
C         57.36685        35.68642         0.97548
C         56.06137        35.00910         0.58710
C         57.48685        37.06649         0.91455
C         56.51514        37.87322         0.24227
C         57.42542        40.02067         1.18726
C         56.18774        39.23820         0.83166
C         57.22330        41.43466         1.69611
C         56.27534        42.26046         0.83700
C         57.63180        44.28189         1.25168
C         56.41576        43.63394         0.69638
C         58.06817        45.52255         0.88144
C         56.30969        46.75108         0.35388
C         57.57834        48.57139         1.56115
C         56.35168        48.02548         0.91019
C         57.54710        50.04166         1.74818
C         56.37337        50.71864         1.76038
C         60.22160        24.46952        -2.19043
C         58.94626        25.19061        -2.13405
C         60.15325        26.99024        -0.66075
C         58.92164        26.50325        -1.39457
C         60.20200        28.50569        -0.75419
C         59.00362        29.23470        -0.57623
C         60.28600        31.27232        -0.65440
C         59.03999        30.64884        -0.47581
C         60.03805        33.38206         0.45190
C         58.72907        33.61257         0.77921
C         59.59229        35.50956         2.27489
C         58.44825        34.84997         1.57039
C         59.66736        37.01558         2.27614
C         58.67484        37.78275         1.44930
C         59.61251        39.94928         2.55114
C         58.61980        39.28368         1.55856
C         59.45765        41.39518         2.85486
C         58.47371        42.13970         2.16783
C         59.66214        44.20238         2.74585
C         58.56451        43.53944         2.11609
C         59.90448        45.63362         2.56847
C         59.20290        46.33132         1.42278
C         60.06044        48.48261         2.33953
C         58.82233        47.76929         1.87672
C         61.39585        25.06610        -1.72938
C         61.41431        26.28417        -1.07100
C         61.41755        29.17099        -0.95640
C         61.45799        30.55858        -0.93411
C         61.14962        33.98380         1.16646
C         60.94161        34.90718         2.12845
C         60.37927        37.72329         3.35569
C         60.32269        39.06450         3.49185
C         60.47117        42.05895         3.56203
C         60.55579        43.44482         3.52368
C         60.80328        46.36303         3.28987
C         60.98277        47.78108         3.03326
O         50.40794        28.05013        -3.41654
O         49.89254        46.46362        -1.60176
O         29.33385        43.03056        -4.25421
O         34.76450        47.46432         0.74484
O         54.79814        31.35679        -2.63053
O         31.42245        32.23828         1.93443
O         49.60989        33.25737        -3.32079
O         27.59292        24.16712         1.65454
O         60.42924        32.65165        -0.66922
O         32.58754        48.62791         1.25768
O         48.20851        24.24844        -2.88768
O         40.88995        49.88535         1.21738
O         46.72074        52.39782        -0.35223
O         26.78515        35.38625         1.01764
O         59.91566        39.84819         1.13229
O         52.68168        35.86093        -3.07915
O         44.74206        51.12177        -1.43519
O         52.44002        40.57994         1.37716
O         37.17393        18.22196         0.91508
O         34.09782        29.66243         1.90493
O         57.47415        46.19495        -0.19319
O         44.35548        48.25941         0.70077
O         24.47549        34.82492        -1.70360
O         58.98974        26.49676        -2.85111
O         54.97788        37.84154        -1.63132
O         48.34218        43.02570         0.66137
O         27.25213        39.19863        -3.70968
O         54.65100        34.51434        -2.47291
O         50.42533        44.26284         1.45944
O         38.30151        22.37583        -1.06617
O         47.24012        33.82793        -0.43362
O         47.49138        40.21347        -3.17990
O         51.62862        26.77422        -0.32802
O         57.77183        47.85295         2.88247
O         54.64547        44.03991        -1.11678
O         28.34093        46.85545        -3.40775
O         22.83261        39.48590        -2.96264
O         30.73177        40.28322        -0.57008
O         38.23183        51.01193        -1.25297
O         43.76192        46.92650        -2.82340
O         34.90316        53.93243         0.12903
O         36.19184        35.88287         0.72976
O         51.10871        50.87431         3.01002
O         37.92291        44.67019        -4.10327
O         47.21503        35.67219        -3.50318
O         36.23503        30.20100        -2.02533
O         39.13734        56.89662         1.51915
O         44.59341        37.91697        -3.56860
O         41.33935        26.22579         0.69430
O         53.31591        22.38179        -2.94675
O         39.52329        26.72064        -2.25705
O         29.77949        35.14437        -2.30630
O         40.82726        46.98725        -3.09384
O         39.85695        19.36120         3.30843
O         59.96553        37.38515         0.88148
O         34.21136        43.08594        -3.73899
O         43.65008        27.42279         0.33370
O         30.80420        45.96234        -3.82691
O         49.89409        36.56593         0.11381
O         35.49920        22.45647        -0.42065
O         52.05185        31.21917        -0.07267
O         49.86741        51.13801        -0.34582
O         39.30702        53.80596         3.32294
O         25.48592        27.98766         4.85421
O         27.84684        32.59213         2.70558
O         29.65753        22.63663         1.36677
O         31.35140        26.15325        -0.05409
O         41.84315        43.13042        -3.47349
O         38.69585        29.32633         0.47726
O         31.45030        43.25850        -1.39350
O         36.56202        43.42965        -0.94512
O         23.78752        29.37351         1.72395
O         39.78655        33.58101         0.15184
O         39.84503        40.53031        -0.01070
O         47.59527        44.52493        -2.47461
O         57.39323        31.56327         1.14891
O         55.10442        32.75799         0.75426
O         24.67478        32.81567        -0.36708
O         24.24432        37.01328        -2.70642
O         47.00177        29.18392        -3.37294
O         54.61879        24.37536        -0.15891
O         41.43318        21.19010        -0.90098
O         49.43116        20.15144        -2.18269
O         56.85470        28.91865         0.61084
O         40.67906        29.16890        -2.74766
O         26.68673        30.33662         4.01925
O         45.48342        24.43278        -2.44744
O         28.39903        37.95589        -0.58636
O         43.88963        21.19071         1.76095
O         58.56836        34.82380         3.05210
O         33.73199        50.84573        -1.40452
H         34.36366        51.56815        -1.61402
O         52.69628        45.72675        -1.45343
H         52.43456        46.56470        -1.89010
O         45.47618        23.63863         1.18323
H         45.10412        22.93059         1.76035
O         39.46052        38.14960         0.67939
H         39.81830        39.01870         0.98704
O         50.45489        37.05012        -3.07305
H         51.39366        37.14788        -3.37938
O         23.58950        45.66799        -4.44967
H         22.89148        45.23795        -4.98702
O         38.94133        45.95659        -0.11697
H         38.03063        46.03724         0.24121
O         37.66468        33.39734        -2.85047
H         36.97924        32.75830        -3.14080
O         51.52481        24.98930        -3.57756
H         51.64053        24.05648        -3.85979
O         23.34808        47.11901        -0.15116
H         23.18447        47.91690         0.39487
O         47.09640        51.80542         3.20416
H         47.75524        51.97181         3.91209
O         44.82334        19.93138        -1.60115
H         45.56297        19.46464        -2.04461
O         57.27725        30.71482        -2.45760
H         56.55393        30.76133        -3.12670
O         43.92643        53.52956        -0.75565
H         44.69912        53.22253        -1.28570
O         28.87999        28.24089         4.18706
H         28.27438        28.88775         4.61986
O         37.76455        47.03134        -3.42470
H         37.86779        46.36274        -4.17006
O         55.22824        35.05914         1.78232
H         54.88793        34.14813         1.94926
O         56.49390        41.24177         2.96800
H         55.80947        40.53674         2.84162
O         52.91847        44.61298         2.00946
H         52.03768        44.67940         2.44643
O         42.20686        51.05818        -1.88737
H         43.01069        51.06693        -2.45508
O         55.55712        38.87711         2.15637
H         54.75894        38.33162         1.97845
O         41.24893        35.24368        -3.44115
H         42.08075        34.99019        -3.89615
O         60.15852        46.47217         0.33481
H         59.64562        46.54963        -0.49863
O         50.72187        40.66753        -2.41780
H         49.96435        40.56145        -3.03551
O         40.29550        24.10119        -2.10318
H         39.56668        23.45351        -2.25870
O         59.91737        26.65398         0.74302
H         60.60280        27.09614         1.28617
O         48.13925        23.66577         0.70470
H         47.27831        23.80401         1.17865
O         42.61263        42.12876        -0.08922
H         43.27130        41.61751         0.42591
O         42.37170        18.78455         3.45246
H         41.58520        18.97069         4.01860
O         47.77318        31.38153         0.05039
H         47.36222        32.17764         0.46881
H         23.30558        24.22768         4.18120
H         21.22021        25.50686         4.35439
H         21.14932        27.92713         3.82241
H         21.17241        30.00330         3.75963
H         21.10910        32.23877         2.82579
H         21.04994        34.07638         2.02174
H         20.93206        36.15734         0.86454
H         21.13982        38.05266         0.51487
H         21.12663        40.33215        -0.22710
H         20.91132        41.95096        -1.39004
H         20.91565        44.34055        -2.11241
H         21.00599        46.15151        -3.71085
H         23.15064        49.54235        -2.14348
H         21.13409        48.56817        -3.19624
H         25.06161        23.46016         4.60554
H         24.21934        49.96420        -0.16852
H         27.02462        22.10724         4.17680
H         26.25561        51.16456         0.49241
H         30.96378        20.20544         4.29100
H         28.82551        21.32342         4.33831
H         29.95670        53.41927         1.18381
H         27.89303        52.25012         0.61184
H         32.38710        19.07489         3.83949
H         31.54095        53.93967         2.31794
H         34.40105        17.74261         3.57268
H         33.55481        55.14135         2.92839
H         38.12814        15.48569         3.52701
H         36.03860        16.71435         3.61995
H         37.18413        57.50049         3.58433
H         35.18553        56.14217         3.24301
H         39.58467        14.37031         2.70638
H         38.89956        58.59158         3.70500
H         43.75474        14.22936         1.67744
H         41.65059        13.07728         2.27877
H         43.16531        58.45838         4.16048
H         41.00586        59.54549         4.58493
H         45.46829        15.20537         1.77950
H         44.79371        57.59238         3.94586
H         47.49317        16.30086         1.01576
H         46.91787        56.47851         3.70769
H         51.13900        18.20029        -0.09834
H         49.05599        17.16295         0.48751
H         50.72532        54.49980         3.29429
H         48.59681        55.64503         3.52792
H         52.78393        19.06084        -0.66352
H         52.57376        53.84097         2.56423
H         54.92421        20.15882        -1.05109
H         54.67457        52.69915         2.25329
H         58.45044        22.74924        -3.26876
H         56.37336        21.39920        -3.12480
H         58.48238        50.58349         1.94739
H         56.39226        51.80143         1.94924
H         60.25525        23.44752        -2.59103
H         60.16445        49.56908         2.21044
H         62.34496        24.52574        -1.86394
H         62.36887        26.64063        -0.65684
H         62.33866        28.60518        -1.14582
H         62.39375        31.10292        -1.11111
H         62.16074        33.62487         0.92935
H         61.78864        35.37363         2.65367
H         60.88080        37.11637         4.12381
H         60.77561        39.52988         4.37958
H         61.24017        41.48682         4.09819
H         61.38865        43.93868         4.04108
H         61.39655        45.90920         4.09613
H         61.86318        48.28352         3.45955
