         349
 CSIRO Nanostructure Databank - Neutral Graphene Oxide Data Set
C          1.62265         3.60911        -2.40648
C          0.43388         4.27502        -2.65366
C          1.40903         6.36565        -1.85399
C          0.32241         5.64511        -2.37589
C          1.33985         7.79270        -1.59529
C          0.12178         8.49432        -1.42466
C          1.04044        10.25991         0.09110
C         -0.01313         9.59845        -0.57880
C          0.95850        12.24823         1.30508
C         -0.19016        13.02169         1.67008
C          1.08641        15.06930         1.41320
C         -0.10342        14.38790         1.77428
C          1.15417        16.47912         1.39645
C         -0.00037        17.28158         1.69376
C          1.20121        19.32561         1.12792
C          0.01734        18.63772         1.55493
C          1.19010        20.70991         0.87719
C         -0.04566        21.46683         0.81462
C          1.21713        23.59064         0.57821
C         -0.06243        22.80065         0.59660
C          1.11104        24.95013        -0.08800
C          0.01231        25.73944         0.17289
C          1.19772        27.83570        -0.24248
C          0.03119        27.15868         0.05641
C          1.35203        29.24960        -0.00270
C          3.94573         3.62780        -1.60505
C          2.73299         4.30181        -1.85110
C          3.76147         6.37839        -0.97015
C          2.63915         5.70142        -1.56770
C          3.73003         7.82472        -0.82099
C          2.56701         8.44244        -1.33122
C          3.55273        10.69311         0.38454
C          2.38090        10.27820        -0.31720
C          3.46088        12.00570         1.08596
C          2.18780        12.79903         1.02667
C          3.57642        14.95237         1.12084
C          2.24670        14.29453         0.81838
C          3.61269        16.36812         0.98502
C          2.37977        17.14482         1.05487
C          3.62261        19.23406         0.60224
C          2.40611        18.55342         0.93801
C          3.63250        20.60895         0.39565
C          2.40622        21.38094         0.48864
C          3.56576        23.32911        -0.47073
C          2.37478        22.72834         0.13399
C          3.56320        24.77889        -0.89799
C          2.27215        25.54624        -0.75980
C          3.66725        27.72250        -0.80562
C          2.33600        27.08853        -0.79085
C          3.74710        29.16242        -0.58165
C          2.55045        29.87267        -0.16335
C          6.23588         3.47246        -0.92068
C          5.03458         4.24001        -0.95182
C          5.95779         6.39772         0.05582
C          4.90008         5.64411        -0.56456
C          5.99625         7.83821         0.04971
C          4.82325         8.59334        -0.27877
C          6.02194        10.63004         0.55184
C          4.77922         9.99472         0.16293
C          6.05897        11.94956         1.33675
C          4.74238        12.73524         1.38167
C          6.01393        14.91307         1.23070
C          4.77327        14.22641         1.25308
C          6.06017        16.31532         0.97698
C          4.85104        17.02659         0.82990
C          6.14104        19.16174         0.45705
C          4.84703        18.41904         0.25237
C          6.14870        20.58267         0.20523
C          4.87247        21.30408         0.07991
C          6.06459        23.27636        -0.89747
C          4.84449        22.62958        -0.28849
C          6.07671        24.80078        -0.90021
C          4.84498        25.52651        -0.93402
C          6.14492        27.68733        -0.77572
C          4.82555        26.95321        -0.91461
C          6.07939        29.10872        -1.40226
C          4.92666        29.84034        -0.76915
C          8.66599         3.51806        -0.43824
C          7.35930         3.76408        -0.09178
C          8.16628         6.44087         1.11624
C          6.99650         5.77858         0.77268
C          8.38581         7.78177         0.77520
C          7.21452         8.50413         0.38942
C          8.54192        10.59702         0.65676
C          7.22307         9.92830         0.49742
C          8.55770        12.07601         0.93822
C          7.28065        12.81600         1.09993
C          8.49676        14.98311         1.66637
C          7.27051        14.16935         1.26507
C          8.55643        16.35758         1.04386
C          7.33337        17.01992         0.84326
C          8.60083        19.16630         0.76544
C          7.32029        18.44649         0.63708
C          8.61648        20.66001         0.43763
C          7.33645        21.27756         0.06132
C          8.59792        23.22613        -0.94721
C          7.33435        22.75946        -0.20425
C          8.58787        24.74920        -0.99637
C          7.32308        25.44450        -0.97846
C          8.57853        27.64704        -0.97045
C          7.32498        26.90482        -1.37065
C          8.60727        29.11559        -1.21829
C          7.41794        29.80344        -1.32331
C         10.91716         4.09168        -1.13580
C         10.01972         3.98285         0.10916
C         11.12869         6.23783         0.72647
C         10.10435         5.32395         0.82923
C         10.89087         7.64305         1.17079
C          9.69069         8.40412         0.96787
C         11.01643        10.51803         1.12132
C          9.76626         9.81600         0.95669
C         11.05284        11.92376         1.25392
C          9.81930        12.66423         1.45185
C         11.06454        14.88766         1.31667
C          9.82196        14.21454         1.63443
C         11.05557        16.26692         0.99182
C          9.81710        17.01238         0.91622
C         11.07759        19.10496         0.46444
C          9.86914        18.41966         0.66796
C         11.09639        20.53969         0.13683
C          9.89175        21.26975         0.04632
C         11.08800        23.23316        -1.03114
C          9.88621        22.75467        -0.23897
C         11.09741        24.72225        -1.39399
C          9.79710        25.41667        -1.03862
C         11.12603        27.59873        -1.00235
C          9.85383        26.87584        -0.85230
C         11.09812        29.04154        -1.10469
C          9.88600        29.75022        -1.21392
C         13.34851         4.13308        -1.53635
C         12.28809         4.64004        -0.83575
C         13.65445         6.31117         0.28916
C         12.39082         5.76523         0.09090
C         13.93981         7.40965         1.17153
C         12.01252         8.39263         1.60379
C         13.57716        10.39657         1.34092
C         12.20413         9.76412         1.43115
C         13.60651        11.90679         1.24800
C         12.32982        12.66574         1.59884
C         13.57517        14.80211         0.93296
C         12.27117        14.04260         0.90805
C         13.52273        16.17838         0.75459
C         12.29712        16.94554         0.79868
C         13.53391        19.08013         0.48921
C         12.32330        18.37418         0.56970
C         13.56818        20.34380        -0.33342
C         12.32918        21.18069        -0.16393
C         13.60944        23.34106        -0.67625
C         12.37410        22.52623        -0.77676
C         13.52353        24.73280        -0.58258
C         12.32440        25.45557        -0.87207
C         13.63681        27.59540        -1.13847
C         12.32159        26.87442        -0.94799
C         13.56434        29.09771        -0.96186
C         12.33077        29.75483        -1.06552
C         15.85220         4.30013        -2.19544
C         14.73388         4.55282        -1.28485
C         16.05405         6.60872        -0.47010
C         14.86346         5.75956        -0.34387
C         16.12810         7.88617         0.24648
C         14.98244         8.28678         1.04386
C         16.15729        10.45934         1.66041
C         14.86172         9.61139         1.78951
C         16.13586        11.96625         1.53818
C         14.86273        12.69190         1.33743
C         16.05809        14.77347         0.76043
C         14.84185        14.07492         0.99511
C         16.06882        16.16045         0.30522
C         14.75338        16.89620         0.35719
C         16.09450        19.08979         0.63159
C         14.80305        18.35804         0.64222
C         16.02213        20.61746         0.64106
C         14.88550        21.13931        -0.24489
C         16.06121        23.37453         0.07830
C         14.88356        22.64162        -0.41706
C         15.95803        24.80942         0.30089
C         14.67900        25.51374        -0.04410
C         16.03516        27.70684        -0.30760
C         14.73304        26.99404        -0.28484
C         16.01679        29.11437        -0.60167
C         14.76816        29.78976        -0.80646
C         18.26637         4.51190        -2.70848
C         17.06942         4.91742        -1.97458
C         18.46903         6.72245        -0.88155
C         17.15435         6.08477        -1.12147
C         18.47604         8.20113        -0.55163
C         17.30545         8.58501         0.33081
C         18.64214        10.54459         0.96198
C         17.46092         9.68256         1.35761
C         18.63331        11.90080         0.92346
C         17.42634        12.68666         1.25982
C         18.53451        14.76497         0.09920
C         17.37664        14.13639         0.89866
C         18.52769        16.27638         0.28891
C         17.34484        16.93502         0.30259
C         18.58521        19.14642         0.20383
C         17.28219        18.41337        -0.03139
C         18.56294        20.57955         0.26537
C         17.33451        21.29391         0.30102
C         18.54811        23.46054         0.22739
C         17.30464        22.71083         0.22496
C         18.54476        24.87907         0.16205
C         17.27375        25.61558         0.30997
C         18.48174        27.74696        -0.19696
C         17.23953        27.04568        -0.07732
C         18.46170        29.15878        -0.43002
C         17.22543        29.82232        -0.61263
C         19.48740         5.05573        -2.49565
C         20.91674         6.97553        -1.50802
C         19.69556         6.13926        -1.51264
C         20.99371         8.08637        -0.72996
C         19.83449         8.67482        -0.08247
C         21.11983        10.53019         1.04168
C         19.89288         9.84515         0.64170
C         21.11987        11.87416         1.18102
C         19.92260        12.62062         0.70584
C         21.01872        14.96781         0.81231
C         19.89427        14.08939         0.40790
C         20.98673        16.29200         0.60946
C         19.82207        16.95338        -0.10694
C         21.00175        19.19183         0.06490
C         19.79280        18.45884         0.09547
C         21.00229        20.57521         0.11827
C         19.79669        21.30544         0.20958
C         20.98301        23.50277         0.13354
C         19.78356        22.75424         0.20627
C         20.96797        24.88192         0.03717
C         19.75240        25.60444         0.04143
C         20.91365        27.81563        -0.12638
C         19.73243        27.06518        -0.07566
C         20.88868        29.20983        -0.31277
C         19.68909        29.87620        -0.47671
O         14.27558        26.47707         0.99225
O         13.65025        11.06814         0.03709
O          2.62483         9.81111        -1.62739
O         18.27918        14.66086        -1.27730
O          8.75524        11.59301        -0.43352
O         15.13965         4.39839         0.12012
O         11.61456        22.42669        -2.10829
O          0.70380        10.86971         1.30825
O          3.93975        12.16735         2.48769
O         13.01722         7.63431         2.18793
O         16.27445        11.27522         2.86450
O          6.99006         4.41734         1.10543
O          8.61158        20.16528         1.83989
O         19.31199         5.82823        -0.10555
O         15.63249        18.54948         1.90466
O         17.73796        13.73586         2.25991
O          9.80658        13.28806         2.79180
O         15.29235        21.67652        -1.51271
O          9.05998        27.30033         0.35910
O          9.11800         5.64594         1.77690
O         16.56643        25.28119         1.54255
O          1.98774        26.29632        -1.97518
O         20.19237        13.12657        -0.65891
O         15.25808        16.43487        -0.91631
O          3.42417        23.73230        -1.93726
O         10.02748        23.42620         1.03614
H          9.13985        23.43711         1.47446
O         15.68559        21.05572         1.97853
H         15.56348        20.23630         2.52262
O         17.02824        18.52180        -1.45928
H         17.63810        17.90533        -1.92108
O         10.24185         4.98463        -2.03840
H         10.82319         5.14430        -2.80986
O         12.42635        12.83645         3.03022
H         11.53551        13.11492         3.35893
O         18.23948         8.85889        -1.84533
H         18.40150         9.82033        -1.73409
O         17.82240         9.02836         2.60244
H         17.71185         9.69281         3.31740
O         13.46624        19.89174        -1.72371
H         13.93305        20.56079        -2.28022
O          7.35859        23.39384         1.11371
H          6.76084        22.89242         1.70813
O          8.65994        22.65871        -2.25902
H          7.78160        22.77563        -2.69401
O          1.52826        23.91772         1.99333
H          1.47307        23.08117         2.50365
O          8.24193        15.28171         3.07512
H          8.44663        14.46180         3.58066
O         12.01330        13.75526        -0.50513
H         12.23385        14.55590        -1.02724
O          5.73331        29.02856        -2.81456
H          6.43761        28.49399        -3.25480
O         11.18582        24.83009        -2.84655
H         11.42460        23.92985        -3.17874
O          6.34539        27.83272         0.64761
H          7.26450        27.57838         0.89069
O          6.02877        22.86921        -2.29958
H          5.11816        23.10485        -2.61641
O         19.93910        16.71556        -1.53499
H         19.45237        15.85303        -1.72093
O         14.68373         9.32561         3.18300
H         15.01664        10.10208         3.68869
O         10.56398         2.95949         0.97184
H         10.03303         2.94454         1.79552
O         14.04633        27.35208        -2.51964
H         13.30371        27.60763        -3.10643
O          7.27773        26.91438        -2.82768
H          6.60321        26.26229        -3.11453
O          2.09238        14.45565        -0.65045
H          2.13569        15.41708        -0.84716
O          4.73758        18.19727        -1.20786
H          4.77436        19.07804        -1.63963
O          6.32786        11.48823         2.70468
H          5.44863        11.42444         3.15307
H          1.71809         2.53609        -2.62503
H         -0.42492         3.73491        -3.07555
H         -0.62150         6.16202        -2.59592
H         -0.80983         8.00513        -1.74576
H         -1.03189         9.85498        -0.25224
H         -1.11465        12.49139         1.93148
H         -0.97511        14.94581         2.13986
H         -0.93158        16.80019         2.01747
H         -0.89285        19.20803         1.78159
H         -1.00140        20.92850         0.88039
H         -1.02540        23.32403         0.51761
H         -0.87177        25.29476         0.65166
H         -0.84660        27.72256         0.40404
H          0.47157        29.81786         0.33156
H          4.03481         2.57325        -1.90592
H          2.63849        30.95309         0.02206
H          6.30346         2.62544        -1.62172
H          4.98330        30.92428        -0.58700
H          8.77096         2.95081        -1.37842
H          7.44205        30.89439        -1.47436
H         11.01643         3.07788        -1.61537
H          9.92598        30.84539        -1.31247
H         13.16584         3.35793        -2.29832
H         12.30477        30.85507        -1.04259
H         15.74356         3.54714        -2.99071
H         14.76504        30.89045        -0.82420
H         18.15209         3.70639        -3.44996
H         17.21895        30.90733        -0.79381
H         20.35092         4.72012        -3.09016
H         21.80078         6.62062        -2.05879
H         21.95106         8.62265        -0.64742
H         22.02395         9.93766         1.24361
H         22.03348        12.41665         1.46304
H         21.89709        14.50583         1.29019
H         21.84211        16.90444         0.93163
H         21.95800        18.66489        -0.05314
H         21.96494        21.09951         0.06030
H         21.95420        22.99150         0.13050
H         21.92607        25.41195        -0.03986
H         21.88989        27.32423        -0.02191
H         21.83652        29.76473        -0.34279
H         19.67004        30.96274        -0.64223
