         620
 CSIRO Nanostructure Databank - Neutral Graphene Oxide Data Set
C         23.81289        26.99836        -2.34833
C         23.78099        28.36068        -2.31518
C         23.70567        31.36041        -2.48617
C         23.70655        32.71382        -2.55640
C         23.53904        35.68713        -2.39883
C         23.50307        37.07162        -2.35784
C         23.38012        40.01049        -2.05139
C         23.37299        41.41499        -2.06173
C         23.48394        44.32602        -2.54593
C         23.46258        45.67795        -2.65481
C         26.03317        24.28331        -1.01816
C         25.00397        24.85621        -1.69056
C         26.27241        27.08978        -1.62555
C         25.05346        26.26284        -2.10545
C         26.09012        28.54727        -1.50733
C         24.91559        29.15536        -1.92627
C         26.06974        31.37977        -1.74029
C         24.73454        30.64124        -1.64335
C         25.89895        32.85985        -1.46598
C         24.74089        33.52002        -1.93717
C         25.71524        35.72671        -1.33686
C         24.64754        34.96793        -1.88562
C         25.71307        37.12982        -1.35341
C         24.57949        37.82873        -1.83597
C         25.74886        40.01657        -1.48083
C         24.54474        39.28829        -1.78491
C         25.73771        41.44943        -1.47722
C         24.52842        42.15041        -1.80002
C         25.65473        44.30073        -1.40166
C         24.55293        43.61349        -1.86861
C         25.64155        45.76623        -1.31636
C         24.44579        46.50736        -1.95082
C         25.80017        48.55335        -1.95746
C         24.67569        47.90012        -2.34489
C         27.92322        23.08566         0.87445
C         28.11985        24.40036         0.37580
C         27.17175        25.03181        -0.52098
C         28.25895        27.20667        -0.10712
C         27.26084        26.41205        -0.76172
C         28.20642        28.64342        -0.17790
C         27.14638        29.31205        -0.86351
C         28.19587        31.46748        -0.32959
C         27.12699        30.71205        -0.88122
C         28.17712        32.89524        -0.51607
C         26.99249        33.56275        -0.94932
C         28.16029        35.74894        -1.07449
C         26.88437        35.04261        -0.67955
C         28.20728        37.19765        -1.01976
C         26.89455        37.89400        -0.76938
C         28.17162        40.04041        -1.08114
C         26.95207        39.33742        -1.19140
C         28.14318        41.47290        -1.00516
C         26.91624        42.14993        -1.12784
C         28.11362        44.35494        -0.79185
C         26.80518        43.59611        -0.73014
C         28.11407        45.76707        -0.85235
C         26.90646        46.49982        -1.14950
C         28.13394        48.62774        -1.03458
C         26.92711        47.88577        -1.33388
C         28.15522        50.03847        -1.05453
C         29.86069        23.31622         2.29254
C         28.74781        22.57214         1.86237
C         30.19885        24.55216         1.72825
C         29.23877        25.14653         0.84649
C         30.23042        27.33080         1.36977
C         29.30490        26.55716         0.60175
C         29.96035        28.69008         1.46720
C         29.14783        29.41757         0.55792
C         30.44670        31.63010         0.73685
C         29.26518        30.85117         0.39423
C         30.51714        32.99419         0.26526
C         29.37271        33.61555        -0.28852
C         30.65832        35.77855        -0.64930
C         29.45250        34.98312        -0.81611
C         30.66107        37.13272        -1.02288
C         29.42241        37.87568        -1.11915
C         30.62721        40.07383        -0.99731
C         29.43514        39.33974        -1.06773
C         30.59045        41.49823        -0.73612
C         29.36321        42.19777        -0.74934
C         30.53784        44.35882        -0.38128
C         29.33301        43.64092        -0.62660
C         30.53413        45.79589        -0.34869
C         29.33111        46.49676        -0.64659
C         30.51900        48.65802        -0.37863
C         29.32743        47.92762        -0.68269
C         30.50926        50.08171        -0.41765
C         29.30862        50.74372        -0.75360
C         32.99633        20.21481         2.27923
C         31.87739        20.85683         2.80555
C         32.72914        23.08818         2.15458
C         31.77584        22.26687         2.74702
C         32.66993        24.54461         2.14735
C         31.46018        25.23225         2.03248
C         32.66839        27.52336         2.37329
C         31.38207        26.72101         2.08662
C         32.81453        28.96963         2.02506
C         31.70580        29.80059         1.96246
C         32.89477        31.75770         1.27294
C         31.65611        31.08249         1.31241
C         32.94226        33.12468         0.82627
C         31.74642        33.74843         0.30423
C         33.06887        35.77116        -0.29516
C         31.81514        35.08959        -0.16365
C         33.16174        37.01409        -0.92061
C         31.95115        37.81058        -1.25393
C         33.15100        40.20837        -0.97846
C         31.92941        39.41261        -1.26146
C         33.06437        41.55135        -0.50811
C         31.80506        42.23277        -0.47964
C         32.98523        44.34913         0.00009
C         31.76922        43.63180        -0.23874
C         32.93001        45.79423         0.44916
C         31.71836        46.53840        -0.05223
C         32.92032        48.69887         0.29955
C         31.72070        47.94307        -0.03828
C         32.87701        50.10839         0.32764
C         31.71366        50.82770        -0.09162
C         32.94997        52.95608         0.07269
C         31.77930        52.22871        -0.19455
C         35.19908        18.90703         0.87310
C         35.20166        20.29995         1.16134
C         34.02215        20.94125         1.66847
C         35.19089        23.14842         1.74933
C         33.89235        22.42971         1.45357
C         35.14147        24.62926         1.86367
C         33.95996        25.27239         2.16301
C         35.27246        27.47418         2.53944
C         33.95644        26.72893         2.51589
C         35.28435        28.92475         2.18704
C         34.11066        29.61569         1.90740
C         35.29688        31.78976         1.73474
C         34.11175        31.06458         1.64912
C         35.29705        33.25156         1.56475
C         34.12513        33.85118         0.93023
C         35.59320        35.84722         0.18059
C         34.28843        35.08339         0.14903
C         35.59400        37.19787        -0.41213
C         34.47858        37.54605        -1.14681
C         35.62349        40.30049        -0.74529
C         34.43397        39.73258        -1.26528
C         35.54674        41.62252        -0.28168
C         34.27135        42.27771        -0.29081
C         35.48155        44.44023        -0.22079
C         34.19665        43.68440        -0.06797
C         35.40584        45.88358         0.17220
C         34.22216        46.56097         0.24008
C         35.39036        48.73840         0.40856
C         34.19160        48.01503         0.37244
C         35.42047        50.14039         0.81002
C         34.04421        50.88797         0.76498
C         35.34795        53.04720         0.78375
C         34.10492        52.33611         0.55131
C         35.37095        54.43880         0.93433
C         37.52679        19.01031         0.15785
C         36.32097        18.28917         0.37773
C         37.55795        20.40914         0.45534
C         36.39375        21.03899         0.93344
C         37.65967        23.25138         1.01287
C         36.46788        22.44900         1.38058
C         37.67502        24.61482         1.33468
C         36.49320        25.25342         2.00049
C         37.93338        27.42756         2.42428
C         36.57465        26.69506         2.43251
C         37.84504        28.92817         2.11814
C         36.56965        29.64109         2.33524
C         37.82710        31.87610         1.85047
C         36.55719        31.16262         2.14315
C         37.84078        33.26180         1.69189
C         36.59555        34.04696         1.68328
C         37.98111        36.08020         0.81776
C         36.62688        35.53559         1.25010
C         38.04897        37.31273         0.14993
C         36.86736        37.97151        -0.46853
C         38.16043        40.36196        -0.49296
C         36.89192        39.51331        -0.70659
C         37.99230        41.63679         0.31224
C         36.73705        42.33874         0.18566
C         37.79777        44.48599         0.87237
C         36.66327        43.71193         0.36277
C         37.91489        45.92110         0.56832
C         36.70031        46.58501         0.08424
C         37.93508        48.77967         0.44682
C         36.67744        48.09267         0.12670
C         37.88733        50.24623         0.32007
C         36.63649        50.94839         0.62076
C         37.86180        53.09427         0.83028
C         36.61248        52.33843         0.75137
C         37.81994        54.53398         1.01566
C         36.56969        55.15623         1.06677
C         39.84977        16.29268        -0.96006
C         38.70289        16.95477        -0.59370
C         39.91827        19.09810        -0.47351
C         38.70714        18.35141        -0.31306
C         39.94645        20.50600        -0.23625
C         38.76580        21.18171         0.22694
C         39.86185        23.37256        -0.28376
C         38.77332        22.58265         0.41622
C         39.92284        24.88911         0.10242
C         38.86156        25.40081         1.09519
C         40.26881        27.39539         1.44962
C         38.97867        26.68911         1.57726
C         40.27770        28.88934         1.72286
C         39.00691        29.65278         1.91805
C         40.26325        31.81661         1.58078
C         39.03522        31.10227         1.78692
C         40.34475        33.20812         1.57148
C         39.12310        34.03735         1.87343
C         40.42108        36.01917         1.09805
C         39.16166        35.38975         1.19902
C         40.50453        37.37650         0.70036
C         39.34204        38.00300         0.07353
C         40.52293        40.24171         0.53134
C         39.39297        39.54694        -0.10350
C         40.42991        41.65461         0.78881
C         39.14924        42.30707         0.71657
C         40.35117        44.51419         1.12558
C         39.10626        43.72592         1.11125
C         40.32622        45.93297         1.08980
C         39.10320        46.63105         0.76757
C         40.36912        48.81692         0.83617
C         39.12117        48.08895         0.63149
C         40.41240        50.23647         0.79059
C         39.19877        51.01477         0.44414
C         40.35158        53.17830         0.89898
C         39.09015        52.43660         0.78576
C         40.30586        54.62478         1.18579
C         39.05964        55.29894         1.13460
C         40.27688        57.41905         1.22796
C         39.08239        56.71758         1.19118
C         42.28133        16.29971        -1.38227
C         41.08110        16.99366        -1.06774
C         42.34178        19.10976        -0.99495
C         41.10992        18.39929        -0.85088
C         42.34036        20.51914        -0.82043
C         41.17692        21.23229        -0.42938
C         42.43096        23.36840        -0.43990
C         41.21550        22.66192        -0.30094
C         42.48955        24.80807        -0.20958
C         41.32065        25.42102         0.32851
C         42.50123        27.53934         0.27638
C         41.39589        26.77634         0.70120
C         42.24006        28.94895         0.25364
C         41.34274        29.62104         1.02910
C         42.82277        31.74773         1.30424
C         41.50681        31.04050         1.40002
C         42.83832        33.21004         1.40118
C         41.60699        33.89677         1.46552
C         42.88497        36.00148         1.36904
C         41.64049        35.31371         1.37237
C         42.90937        37.41304         1.23696
C         41.70107        38.09829         0.87633
C         42.85144        40.20726         1.43174
C         41.67341        39.52540         0.86831
C         42.82566        41.69768         1.55057
C         41.57367        42.39407         1.18404
C         42.77782        44.51724         1.77707
C         41.55787        43.79708         1.27192
C         42.78063        45.97708         1.41611
C         41.56712        46.66487         1.21203
C         42.78110        48.81297         1.36696
C         41.56663        48.10301         1.11941
C         42.80293        50.24308         1.38339
C         41.60134        50.92791         1.10502
C         42.83907        53.11421         1.59677
C         41.63488        52.40672         1.04532
C         42.79456        54.61825         1.57711
C         41.51685        55.32768         1.30765
C         42.78272        57.43071         1.26644
C         41.52046        56.74166         1.28344
C         43.48265        16.96750        -1.43159
C         44.82423        19.03573        -1.21438
C         43.55476        18.37551        -1.23638
C         44.87352        20.48983        -1.36640
C         43.54201        21.27632        -1.16247
C         44.88495        23.33928        -0.92741
C         43.64122        22.68287        -0.78845
C         44.88278        24.82237        -0.94758
C         43.68836        25.54718        -0.43527
C         44.98429        27.71822        -0.36463
C         43.73166        26.96642        -0.23074
C         45.18271        29.09700        -0.05400
C         44.09038        29.99960         0.01656
C         45.31133        31.76997         1.07486
C         44.06718        31.15051         0.77461
C         45.32734        33.14758         1.41809
C         44.08408        33.87403         1.45423
C         45.36375        35.98124         1.56461
C         44.11695        35.29199         1.49815
C         45.37799        37.39989         1.51174
C         44.14700        38.10971         1.35955
C         45.35510        40.24825         1.47480
C         44.15368        39.52367         1.38333
C         45.34208        41.68964         1.45421
C         44.11149        42.41692         1.46956
C         45.26886        44.56033         1.35535
C         44.07775        43.81886         1.46073
C         45.27866        45.96911         1.50123
C         44.01648        46.66885         1.50261
C         45.17394        48.77113         1.96764
C         43.99033        48.08602         1.56226
C         45.11073        50.18505         2.12932
C         44.03967        50.95714         1.66669
C         45.31920        53.14752         1.33154
C         44.13999        52.40276         1.55245
C         45.24303        54.58347         1.09201
C         44.05977        55.32846         1.31845
C         43.97834        56.75185         1.20211
C         47.25570        19.03469        -1.05124
C         46.04410        18.35412        -1.05950
C         47.33660        20.44892        -1.08629
C         46.12583        21.22158        -1.15243
C         47.43660        23.35079        -1.34072
C         46.10557        22.63012        -1.10661
C         47.47632        24.80562        -0.90642
C         46.21911        25.55395        -1.01895
C         47.59514        27.66781        -0.45111
C         46.23069        27.02489        -0.74676
C         47.65151        28.99347         0.17422
C         46.45045        29.70103         0.30530
C         47.74706        31.70075         1.02384
C         46.50048        31.05262         0.79276
C         47.76336        33.06421         1.42345
C         46.57257        33.81773         1.55080
C         47.81356        35.97489         1.73314
C         46.59905        35.26324         1.66557
C         47.84199        37.40343         1.68087
C         46.60821        38.11698         1.57541
C         47.83470        40.25401         1.54250
C         46.60441        39.54270         1.52537
C         47.81266        41.69064         1.41800
C         46.57727        42.38080         1.36509
C         47.80785        44.64047         1.18080
C         46.52872        43.83937         1.13238
C         47.80792        46.10079         1.45195
C         46.51584        46.70118         1.66345
C         48.22403        49.12459         1.62985
C         46.37214        48.03704         2.11643
C         48.03945        50.48017         1.22244
C         46.96322        51.27812         1.67994
C         47.62155        53.13928         0.29200
C         46.62338        52.51624         1.10565
C         47.46149        54.53343         0.01727
C         46.37667        55.22719         0.48946
C         49.81586        20.45499        -1.18763
C         48.60191        21.11814        -1.03657
C         49.92045        23.28090        -0.86481
C         48.58855        22.58456        -0.68024
C         49.95217        24.66655        -0.70048
C         48.70642        25.42682        -0.63688
C         50.04293        27.46647        -0.10607
C         48.80367        26.83195        -0.36594
C         50.11286        28.85772         0.26011
C         48.90742        29.60148         0.46379
C         50.22783        31.64915         0.94587
C         48.96607        30.97392         0.84428
C         50.28685        33.03706         1.25881
C         49.05224        33.70747         1.69122
C         50.34313        35.91870         1.59803
C         49.07621        35.22464         1.86374
C         50.34532        37.37131         1.85404
C         49.07244        38.13432         1.76665
C         50.32802        40.32262         1.69675
C         49.06646        39.54014         1.69395
C         50.28705        41.75335         1.33045
C         49.05412        42.41483         1.35976
C         50.34478        44.64485         1.16826
C         49.04442        43.87623         1.45896
C         50.19624        46.05137         0.76298
C         49.02896        46.79138         1.16051
C         50.07059        48.82351         0.10047
C         49.08830        48.24207         0.97880
C         49.99400        50.21320        -0.24495
C         48.91984        51.02388         0.23990
C         49.75702        52.93330        -1.02284
C         48.76253        52.38646        -0.15378
C         51.04287        21.13363        -1.18495
C         52.38945        23.23538        -1.11506
C         51.12116        22.53267        -1.04540
C         52.42966        24.63515        -0.84922
C         51.21515        25.35258        -0.61792
C         52.52581        27.39995        -0.17347
C         51.26408        26.73171        -0.29688
C         52.56054        28.76252         0.23759
C         51.37391        29.50301         0.44275
C         52.65921        31.64022         0.75674
C         51.43646        30.92357         0.73801
C         52.69227        33.05529         0.86454
C         51.49188        33.76642         1.16624
C         52.75231        35.93657         1.06203
C         51.51546        35.21778         1.33523
C         52.79578        37.34675         1.09371
C         51.66897        38.10220         1.66367
C         52.76499        40.28071         0.87013
C         51.66070        39.59937         1.57457
C         52.69057        41.67411         0.63703
C         51.50192        42.43464         0.97738
C         52.52858        44.47826         0.01969
C         51.48675        43.83263         0.74259
C         52.36754        45.83853        -0.37880
C         51.24129        46.62964        -0.00308
C         52.15448        48.65666        -1.15458
C         51.14466        48.03103        -0.38749
C         52.07236        50.00958        -1.54345
C         50.97081        50.80138        -1.10471
C         50.81481        52.17724        -1.46675
C         54.79818        23.26179        -1.50820
C         53.59464        22.57294        -1.42969
C         54.87757        24.63724        -1.21872
C         53.68563        25.32703        -0.83701
C         55.01379        27.37842        -0.37855
C         53.73790        26.70054        -0.45973
C         55.07290        28.70828         0.02496
C         53.86278        29.38719         0.48801
C         55.18072        31.61575         0.40653
C         53.93113        30.90002         0.73941
C         55.13749        33.06927         0.37648
C         53.93274        33.77340         0.67535
C         55.12281        35.92159         0.38132
C         53.93234        35.20190         0.70032
C         55.10391        37.35222         0.27252
C         53.93039        38.07579         0.61651
C         55.02516        40.19121        -0.09080
C         53.89846        39.51422         0.47211
C         54.96637        41.59784        -0.33651
C         53.78979        42.34316        -0.00501
C         54.80369        44.38006        -0.99466
C         53.70257        43.72790        -0.33424
C         54.70220        45.73075        -1.38507
C         53.40497        46.41663        -1.24741
C         54.58014        48.63721        -1.88985
C         53.30355        47.86018        -1.64166
C         54.24899        49.87839        -2.68649
C         53.08909        50.52834        -2.45449
C         57.26953        24.79672        -1.93625
C         56.13311        25.36444        -1.31860
C         57.46046        27.37310        -0.83326
C         56.21747        26.69212        -0.81303
C         57.62523        28.67326        -0.14095
C         56.35498        29.41439         0.22518
C         57.59986        31.58534        -0.07799
C         56.35902        30.90352         0.21091
C         57.57535        33.08246        -0.33588
C         56.32150        33.79261         0.11899
C         57.54558        35.92820        -0.18355
C         56.32506        35.20145         0.12072
C         57.48797        37.33306        -0.41142
C         56.26673        38.05261        -0.18707
C         57.36556        40.14093        -0.92194
C         56.21682        39.45620        -0.39614
C         57.28367        41.53436        -1.23270
C         56.08212        42.26173        -0.94791
C         57.08943        44.28997        -1.94485
C         56.00059        43.64001        -1.27872
C         56.97339        45.65981        -2.33561
C         55.78125        46.39847        -2.04996
C         56.79543        48.37566        -3.06935
C         55.71008        47.77553        -2.41380
C         58.42663        25.54151        -2.11709
C         59.69205        27.66949        -1.86757
C         58.53603        26.83645        -1.57473
C         59.83956        28.90284        -1.35025
C         58.96352        29.41848        -0.23224
C         60.02743        31.70518        -0.37129
C         58.79823        30.93238        -0.27742
C         60.06778        33.03704        -0.15496
C         58.81592        33.79782         0.20363
C         59.93693        35.95832        -0.60590
C         58.78155        35.24880        -0.24992
C         59.87361        37.30976        -0.92618
C         58.66190        38.02566        -0.82791
C         59.68700        40.13156        -1.68808
C         58.57825        39.43467        -1.14360
C         59.59562        41.46132        -2.03316
C         58.39747        42.19620        -1.82780
C         59.35502        44.24441        -2.89615
C         58.29036        43.57589        -2.21988
C         59.24326        45.55562        -3.28464
C         58.05498        46.29757        -3.01097
C         57.94075        47.65336        -3.38715
O         49.13952        34.32574         3.02252
O         42.94251        29.68918        -0.70064
O         57.16476        28.71278         1.25013
O         34.58854        27.11534         3.78396
O         42.63628        40.85745         2.74813
O         31.96628        38.60812        -2.47018
O         46.99032        27.71429        -1.79882
O         42.66600        53.84947         2.85284
O         31.69790        27.23681         3.42214
O         49.85961        44.39532         2.53334
O         47.47569        48.65153         2.72346
O         44.08235        20.98387        -2.48787
O         42.40464        31.12148         2.59434
O         45.42977        25.28533        -2.24158
O         30.63710        22.82488         3.36044
O         36.80076        47.36447        -1.16386
O         47.22595        44.26458        -0.11500
O         26.17363        26.58218        -2.98953
O         36.56103        30.56621         3.48158
O         39.73894        38.65045        -1.19190
O         36.67944        25.62501         3.41991
O         34.65265        50.43995         2.01275
O         38.21838        44.08002         2.22072
O         41.25345        52.91275        -0.27680
O         35.74106        33.89772         2.86548
O         52.92292        46.85517        -2.61321
O         35.37870        34.83871        -0.85799
O         40.71300        27.96345         2.74958
O         37.11430        38.57224        -1.78610
O         51.23769        37.66434         2.98409
O         36.02462        22.57369         2.79462
O         38.61308        50.71315        -0.86919
O         34.55822        38.59542        -2.06180
O         28.86413        35.11831        -2.17155
O         30.50608        29.39021         2.54282
O         39.74872        25.66635        -1.08182
O         46.18770        50.82482         2.75988
O         24.52846        46.28411        -0.50665
O         51.24237        40.17654         2.84518
O         54.03385        29.95049         1.84674
O         32.76715        45.71802         1.91115
H         32.65874        46.63427         2.24472
O         36.25010        36.34615         2.39196
H         35.98042        35.72574         3.11198
O         26.51453        31.25690        -3.11919
H         27.33673        31.78035        -3.22251
O         58.71882        33.80701         1.65253
H         59.52537        34.22982         2.01294
O         33.68465        22.63465         0.00866
H         32.87682        22.14386        -0.25161
O         38.46559        40.87236        -1.82579
H         38.56289        40.07816        -2.40085
O         57.62622        33.23752        -1.78821
H         56.80938        32.84843        -2.16386
O         24.29524        30.74202        -0.25658
H         23.43008        30.28887        -0.17914
O         39.15917        34.33516         3.31923
H         39.16372        33.47893         3.79946
O         38.40857        27.41186         3.79172
H         38.05739        26.59341         4.21412
O         42.68093        44.48166         3.24926
H         41.77925        44.77924         3.49584
O         26.45220        43.57114         0.70586
H         26.15466        44.47417         0.95044
O         59.70161        29.13049         0.98882
H         59.02934        29.07645         1.70794
O         55.00759        49.07666        -0.55779
H         55.81182        49.62645        -0.66559
O         39.43295        23.31462        -1.67407
H         39.47239        24.27257        -1.97601
O         48.30151        22.63994         0.75777
H         49.01933        22.16172         1.22372
O         26.76140        35.19609         0.76438
H         25.89036        34.83912         1.03563
O         26.70498        37.93765         0.68571
H         25.91108        38.48493         0.86332
O         35.70743        44.47757        -1.68014
H         36.26527        45.25996        -1.88632
O         47.63385        23.36465        -2.77576
H         46.90731        23.90855        -3.15786
H         22.88387        26.42699        -2.49347
H         22.82403        28.86846        -2.50495
H         22.89048        30.79827        -2.96503
H         22.90020        33.21858        -3.10791
H         22.68404        35.15034        -2.83130
H         22.61896        37.58488        -2.75991
H         22.44042        39.48482        -2.26837
H         22.42756        41.92855        -2.28263
H         22.71829        43.73962        -3.07277
H         22.72011        46.17439        -3.29728
H         25.95443        23.21733        -0.76687
H         24.10170        24.27140        -1.92435
H         25.91427        49.60721        -2.24529
H         23.91894        48.40833        -2.96067
H         27.06822        22.48384         0.54186
H         27.24392        50.60352        -1.28918
H         28.53721        21.59558         2.31718
H         29.26838        51.84061        -0.76956
H         33.09137        19.12744         2.40421
H         31.09732        20.28756         3.32591
H         32.94391        54.03998        -0.10875
H         30.90504        52.79080        -0.54790
H         34.28230        18.31971         1.01636
H         34.42457        54.99611         0.97175
H         36.26834        17.21664         0.15350
H         36.50245        56.24324         1.20855
H         39.82845        15.21151        -1.15795
H         37.77295        16.37906        -0.50769
H         40.26502        58.51846         1.21792
H         38.14190        57.28409         1.15939
H         42.23987        15.21609        -1.56279
H         42.78000        58.52985         1.23570
H         44.39860        16.40669        -1.66127
H         44.90380        57.33792         1.11316
H         48.17717        18.44607        -0.95088
H         46.05383        17.26132        -0.94762
H         48.24444        55.07648        -0.52886
H         46.33065        56.30776         0.29864
H         49.83167        19.37208        -1.37436
H         49.68103        53.98019        -1.34704
H         51.95654        20.54286        -1.33050
H         51.55764        52.64766        -2.12511
H         55.70337        22.70298        -1.78058
H         53.59470        21.49648        -1.64570
H         54.97441        50.29554        -3.39974
H         52.88479        51.46682        -2.98984
H         57.22552        23.77872        -2.34525
H         56.75429        49.44175        -3.33379
H         59.27368        25.11745        -2.67465
H         60.41845        27.28740        -2.60099
H         60.71067        29.50676        -1.64176
H         60.96844        31.15959        -0.53010
H         61.04283        33.54443        -0.10216
H         60.90824        35.44816        -0.66097
H         60.79770        37.81874        -1.22931
H         60.63459        39.60696        -1.86608
H         60.47608        41.95030        -2.46904
H         60.28363        43.70547        -3.12437
H         60.07207        46.05178        -3.80964
H         58.77597        48.14374        -3.90682
