         638
 CSIRO Nanostructure Databank - Neutral Graphene Oxide Data Set
C         23.20048        69.95131         1.53143
C         23.23558        71.35799         1.78790
C         22.05246        72.09493         2.01930
C         23.31701        74.15940         2.13283
C         22.10309        73.47968         2.19760
C         25.51921        65.66891         0.83688
C         25.50847        67.02478         0.77875
C         24.21271        67.79784         0.81145
C         25.62489        69.90693         1.26098
C         24.34728        69.24697         1.23703
C         25.70469        71.30362         1.58265
C         24.49040        72.03113         1.77440
C         25.76604        74.12042         1.76988
C         24.52721        73.45235         1.92100
C         27.83307        61.32060         0.24928
C         27.85281        62.72188         0.22187
C         26.68209        63.48906         0.52549
C         27.93740        65.56481         0.26132
C         26.70529        64.87552         0.54402
C         27.99888        67.01417         0.39026
C         26.71795        67.80946         0.32029
C         28.04488        69.79026         1.17679
C         26.80895        69.18113         0.95970
C         28.14261        71.16190         1.56159
C         26.96876        71.97662         1.65358
C         28.13753        74.23143         1.29464
C         26.98862        73.43658         1.64049
C         30.27910        57.03085         0.30191
C         30.26349        58.42102         0.02620
C         29.03718        59.16703         0.08232
C         30.18614        61.27378        -0.54072
C         28.98956        60.55279        -0.05769
C         30.26979        62.72999        -0.39218
C         29.08850        63.42763        -0.05927
C         30.34430        65.62297        -0.35748
C         29.09926        64.84702        -0.00584
C         30.49900        66.81697         0.58652
C         29.20708        67.61846         0.58155
C         30.63947        69.68302         1.05359
C         29.28636        68.99473         1.08522
C         30.65466        71.15431         1.23772
C         29.45311        71.69730         1.76193
C         30.67052        74.17682         0.91887
C         29.45709        73.81308         1.51430
C         32.67216        52.79578         1.29159
C         32.70536        54.23275         0.82758
C         31.51683        54.91481         0.68760
C         32.73033        56.99895         0.20948
C         31.48487        56.31555         0.38160
C         32.73611        58.39931        -0.04748
C         31.50267        59.08951        -0.18215
C         32.75125        61.26843        -0.52075
C         31.50967        60.49407        -0.60057
C         32.76709        62.63816        -0.62367
C         31.53140        63.40521        -0.54243
C         32.84021        65.51448        -0.48267
C         31.60299        64.79828        -0.42219
C         32.85374        66.90854        -0.31218
C         31.71393        67.63624         0.16462
C         32.90410        69.86252        -0.08239
C         31.75016        68.99990         0.37486
C         33.09228        71.09588         0.85008
C         31.82307        71.90973         1.03441
C         33.08555        74.00296         0.70538
C         31.85280        73.35656         0.94972
C         35.19087        48.52320         1.18594
C         35.18586        49.92268         1.12128
C         33.97141        50.67385         1.16409
C         35.20692        52.76605         0.94737
C         33.97552        52.05458         1.11012
C         35.20107        54.21384         0.76837
C         33.96250        54.90344         0.63617
C         35.19797        56.98329         0.11608
C         33.96414        56.29553         0.31952
C         35.19387        58.37891        -0.21273
C         33.98466        59.07056        -0.23659
C         35.13156        61.10631        -1.18189
C         34.05715        60.57107        -0.24175
C         35.20920        62.61401        -0.98168
C         34.06362        63.32897        -0.72573
C         35.31426        65.45287        -0.59138
C         34.09636        64.79066        -0.64284
C         35.38292        66.89350        -0.49709
C         34.09183        67.66891        -0.70483
C         35.43700        69.78464        -0.42652
C         34.16204        69.06337        -0.15523
C         35.46097        71.21442         0.03964
C         34.30713        71.88460         0.42810
C         35.50384        74.01878         0.20367
C         34.31242        73.31766         0.48314
C         37.74535        44.40038         0.64477
C         37.64516        45.60090         1.56498
C         36.40546        46.40529         1.32939
C         37.67027        48.52070         1.23904
C         36.41350        47.79017         1.24516
C         37.66969        49.90369         1.05608
C         36.42986        50.63357         1.00682
C         37.69036        52.77074         0.54958
C         36.41291        52.03975         0.88219
C         37.68159        54.20563         1.08374
C         36.41789        54.93356         0.67908
C         37.66899        57.02902         0.12914
C         36.42886        56.30701         0.34869
C         37.67894        58.30220        -0.40043
C         36.44954        59.06446        -0.55267
C         37.65244        61.08062        -1.57656
C         36.44738        60.37556        -0.98690
C         37.76093        62.53206        -1.11721
C         36.49990        63.35520        -1.26270
C         37.86232        65.36253        -0.61809
C         36.56694        64.61378        -0.40332
C         37.85577        66.79540        -0.27920
C         36.58052        67.54433        -0.31938
C         37.90765        69.72797        -0.43701
C         36.66535        69.01286         0.05910
C         37.87320        71.17033        -0.50544
C         36.68079        71.90470        -0.17524
C         37.91065        74.01738        -0.41608
C         36.70561        73.33533        -0.10952
C         40.11453        40.45464        -1.20504
C         39.73303        41.48391        -0.28426
C         38.92409        42.58044        -0.44290
C         40.11333        44.14706         1.35932
C         38.89192        43.67570         0.52868
C         40.21320        45.67584         1.17206
C         38.91281        46.40824         1.41684
C         40.18544        48.51647         1.30891
C         38.91623        47.78208         1.35266
C         40.17051        49.89494         1.14015
C         38.93271        50.63557         1.03089
C         40.15624        52.80235         1.33798
C         38.93526        52.01340         0.93862
C         40.14722        54.23451         0.84372
C         38.96479        54.90456         0.71085
C         40.21237        57.00023         0.10527
C         38.94165        56.40890         0.65106
C         40.22022        58.28789        -0.43813
C         38.93825        58.80172        -1.07907
C         40.22554        61.08202        -1.29891
C         38.96250        60.29928        -1.42005
C         40.21426        62.55307        -1.23295
C         38.98976        63.22840        -1.09994
C         40.30474        65.40870        -1.03539
C         39.02429        64.69519        -0.91449
C         40.33614        66.82232        -0.91653
C         39.14438        67.56126        -0.45697
C         40.27159        69.69085        -1.10582
C         39.09149        69.02741        -0.66504
C         40.18276        71.13162        -1.37719
C         39.02153        71.88257        -0.88664
C         40.29648        74.00686        -1.04792
C         39.06502        73.31562        -0.82285
C         42.63844        36.67471        -2.93306
C         42.61031        37.87654        -2.17274
C         41.43106        38.61136        -1.99893
C         42.54537        40.09663        -0.27751
C         41.33049        39.76516        -1.16975
C         42.66652        41.55242         0.17172
C         41.54036        42.17358         0.71905
C         42.65442        44.27908         1.03864
C         41.45596        43.54376         0.98028
C         42.67270        45.49615         1.94801
C         41.34571        46.35419         1.97344
C         42.63775        48.51889         1.55008
C         41.43762        47.80967         1.50841
C         42.69218        49.92205         1.28803
C         41.44908        50.61306         0.80417
C         42.64025        52.78647         1.08691
C         41.45364        52.08665         1.08834
C         42.63146        54.23395         0.90408
C         41.42285        54.92084         0.71827
C         42.66763        56.96125         0.10797
C         41.42992        56.30587         0.34200
C         42.66815        58.30364        -0.33865
C         41.46185        58.95190        -0.62761
C         42.76995        61.16620        -1.08012
C         41.47914        60.42524        -0.82564
C         42.75693        62.55504        -1.49824
C         41.44823        63.26529        -1.72482
C         42.74826        65.41981        -1.37918
C         41.50798        64.72559        -1.33523
C         42.74352        66.83215        -1.28618
C         41.52926        67.54078        -1.16987
C         42.68505        69.71706        -1.59544
C         41.49555        69.00504        -1.29071
C         42.73631        71.13086        -1.61394
C         41.48164        71.89793        -1.62468
C         42.74881        73.99044        -1.31901
C         41.49991        73.34367        -1.32406
C         45.07288        34.31489        -4.51315
C         43.85494        34.86778        -4.10308
C         45.10652        36.45331        -2.68122
C         43.81675        35.97682        -3.22742
C         45.12251        37.72944        -1.91150
C         43.84667        38.44492        -1.64813
C         45.12575        40.13446        -0.30731
C         43.84399        39.57574        -0.88778
C         45.09871        41.66104        -0.28963
C         43.85099        42.31217         0.16458
C         45.14683        44.34944         0.84948
C         43.87317        43.64407         0.67541
C         45.18936        45.66645         1.35888
C         43.95372        46.31504         1.85289
C         45.17291        48.55249         1.55757
C         43.91467        47.82074         1.81074
C         45.13657        49.94763         1.53172
C         43.89603        50.64313         1.37366
C         45.10889        52.81235         1.27753
C         43.91068        52.09087         1.21756
C         45.11476        54.24437         1.03076
C         43.87915        54.92530         0.76931
C         45.14407        56.98916         0.29192
C         43.90080        56.28170         0.37797
C         45.20545        58.31315        -0.22158
C         43.95904        58.91855        -0.74041
C         45.31915        61.02130        -1.41134
C         43.99760        60.32505        -1.24138
C         45.30596        62.49591        -1.67513
C         43.99815        63.26167        -1.97417
C         45.23639        65.38319        -1.54554
C         44.02374        64.71735        -1.53840
C         45.28040        66.84260        -1.52413
C         44.02861        67.62175        -1.16732
C         45.19808        69.73905        -1.85289
C         43.92532        68.93488        -1.95202
C         45.21144        71.12531        -1.75655
C         43.96025        71.84369        -1.63329
C         45.19485        73.97187        -1.47265
C         43.96294        73.27853        -1.50086
C         46.30848        34.85471        -4.13274
C         47.58869        36.56778        -2.88222
C         46.37959        35.96789        -3.26908
C         47.64225        37.78219        -2.14812
C         46.36337        38.58007        -2.00802
C         47.60985        40.27043        -0.70228
C         46.40578        39.65286        -0.96274
C         47.65705        41.57485        -0.07357
C         46.39741        42.35354        -0.03899
C         47.60549        44.31708         0.84244
C         46.38133        43.69655         0.56635
C         47.64782        45.71730         1.09292
C         46.40652        46.41230         1.31667
C         47.61825        48.59019         1.26185
C         46.40333        47.83834         1.45298
C         47.63829        49.97096         1.38107
C         46.39997        50.69611         1.83838
C         47.57911        52.83216         1.39598
C         46.37977        52.14557         1.44389
C         47.56390        54.32403         1.58827
C         46.31479        54.96374         1.04297
C         47.55867        57.09413         0.75282
C         46.34283        56.34298         0.69605
C         47.55565        58.45466         0.40569
C         46.40015        59.04304        -0.16158
C         47.73551        61.19040        -0.57165
C         46.60772        60.27488        -1.01879
C         47.72869        62.58364        -0.97043
C         46.54065        63.25666        -1.36539
C         47.73429        65.37286        -1.52107
C         46.51444        64.66137        -1.53068
C         47.76492        66.81354        -1.98887
C         46.43481        67.51330        -1.80595
C         47.74233        69.75164        -2.00128
C         46.43291        68.97962        -2.04871
C         47.69136        71.20405        -1.76592
C         46.46168        71.86365        -1.71418
C         47.64823        74.01318        -1.45916
C         46.43410        73.30376        -1.55445
C         48.83547        38.35632        -1.72085
C         50.07178        40.24637        -0.71569
C         48.87116        39.62786        -1.06339
C         50.11507        41.53680        -0.10284
C         48.85628        42.18085         0.22337
C         50.17238        44.28842         0.87320
C         48.85954        43.53853         0.80923
C         50.11720        45.76403         0.84496
C         48.88305        46.42095         0.98403
C         50.11390        48.62466         0.92043
C         48.82193        47.89333         0.68666
C         50.10301        50.02369         1.05935
C         48.85713        50.72756         1.23772
C         50.07238        52.88174         1.24212
C         48.84365        52.13433         1.33064
C         50.06430        54.30468         1.20399
C         48.83456        55.03137         1.20133
C         50.05020        57.16650         0.95869
C         48.81379        56.40718         0.99229
C         50.02289        58.55268         0.88319
C         48.73070        59.31779         0.79093
C         50.11204        61.34086         0.07479
C         48.85424        60.62660         0.02113
C         50.15259        62.68471        -0.44071
C         48.93888        63.33188        -0.85615
C         50.19246        65.45627        -1.21327
C         48.93891        64.71483        -1.20321
C         50.17518        66.83749        -1.32155
C         48.87176        67.58927        -1.22940
C         50.14359        69.76749        -1.52411
C         48.98700        69.04371        -1.65167
C         50.15270        71.21658        -1.59059
C         48.93015        71.91042        -1.61441
C         50.10445        74.05373        -1.32100
C         48.89860        73.35220        -1.47166
C         51.32549        42.23655         0.01746
C         52.55744        44.36162         0.25958
C         51.39502        43.61325         0.37677
C         52.57294        45.78229         0.48283
C         51.33205        46.48387         0.68399
C         52.56461        48.63460         0.77475
C         51.33848        47.91941         0.78892
C         52.56579        50.05515         0.88472
C         51.33097        50.75738         1.03916
C         52.54722        52.90190         1.07309
C         51.31497        52.17913         1.12501
C         52.54223        54.32018         1.12298
C         51.30118        55.03426         1.12965
C         52.53838        57.18110         1.17882
C         51.29688        56.44751         1.08490
C         52.52370        58.58010         1.16849
C         51.23758        59.36218         1.24047
C         52.54435        61.39835         0.49740
C         51.29310        60.71701         0.54436
C         52.58297        62.75905        -0.02711
C         51.38517        63.39093        -0.49409
C         52.65698        65.45443        -0.94766
C         51.43402        64.75563        -0.94603
C         52.73520        66.86236        -1.36639
C         51.40316        67.59805        -1.51017
C         52.67487        69.76944        -1.67578
C         51.42194        69.06382        -1.12998
C         52.61817        71.26055        -1.41814
C         51.40809        71.93963        -1.48951
C         52.53686        74.13133        -1.16856
C         51.36622        73.39678        -1.35067
C         53.77407        46.50128         0.45328
C         55.01435        48.62606         0.61097
C         53.80933        47.91597         0.61912
C         55.04749        50.05386         0.70303
C         53.79249        50.78229         0.83595
C         55.02146        52.93149         0.93133
C         53.78888        52.19182         0.94051
C         55.02503        54.30335         1.15241
C         53.77940        55.04429         1.20339
C         55.03351        57.16708         1.68149
C         53.76938        56.44133         1.29885
C         55.05037        58.61071         1.23547
C         53.76747        59.37232         1.46889
C         55.00809        61.40042         0.68505
C         53.75405        60.74668         0.85258
C         54.96699        62.90971         0.70884
C         53.78029        63.48715        -0.00479
C         55.07025        65.56009        -0.42704
C         53.83873        64.83005        -0.45590
C         55.09962        66.96332        -0.66852
C         53.93828        67.66479        -1.04563
C         55.06979        69.84655        -0.80739
C         53.93679        69.09263        -1.15277
C         55.10672        71.29552        -0.93126
C         53.89713        71.97910        -1.43746
C         55.05978        74.19964        -0.83582
C         53.85194        73.53348        -1.31662
C         56.24528        50.74143         0.64761
C         57.50003        52.79408         1.38653
C         56.31810        52.23472         0.57589
C         57.55186        54.29939         1.25805
C         56.28733        55.03677         1.23861
C         57.57979        57.17633         1.46472
C         56.29061        56.40102         1.35318
C         57.48437        58.50496         0.73702
C         56.21524        59.27039         0.93006
C         57.47319        61.38162         0.17920
C         56.21055        60.68945         0.66609
C         57.49195        62.80086         0.74896
C         56.26687        63.56226         0.33742
C         57.58998        65.54898        -0.40128
C         56.29245        64.85168        -0.10321
C         57.48887        67.03292        -0.17196
C         56.32833        67.70927        -0.41484
C         57.42038        69.89631        -0.07627
C         56.29097        69.17462        -0.39814
C         57.40292        71.39166         0.09843
C         56.22312        72.03913        -0.58363
C         57.46288        74.19512        -0.34754
C         56.23233        73.49379        -0.61689
C         58.74719        54.95170         1.22359
C         60.00013        57.02915         0.85045
C         58.82679        56.39759         1.12036
C         60.11574        58.47193         0.41240
C         58.77329        59.20181         0.40460
C         59.93674        61.35603         0.79523
C         58.77923        60.67117         0.49394
C         59.95571        62.80603         0.74946
C         58.79568        63.49774         0.50419
C         59.99159        65.59289         0.24659
C         58.80768        64.91624         0.23398
C         59.98578        67.03325        -0.05976
C         58.69961        67.70506         0.39932
C         59.96233        69.97311         0.10258
C         58.67969        69.21734         0.28415
C         59.91679        71.42497        -0.21105
C         58.72503        72.08388        -0.21054
C         59.91019        74.25865        -0.02818
C         58.68933        73.54764        -0.23319
C         61.23101        59.27309         1.03881
C         62.42286        61.41244         1.20686
C         61.20869        60.65195         1.04060
C         62.48814        62.80463         1.07897
C         61.20749        63.59617         1.07074
C         62.51080        65.68623         0.54490
C         61.30224        64.84548         0.20350
C         62.51613        67.05793         0.34829
C         61.28232        67.76341        -0.09858
C         62.35184        69.97011         0.65362
C         61.29186        69.28495        -0.20366
C         62.41900        71.43925         0.29220
C         61.24303        72.15642        -0.36485
C         62.34595        74.28358         0.34036
C         61.14782        73.60972         0.05095
C         63.68395        63.55193         1.08957
C         64.90103        65.71640         1.06406
C         63.71405        64.97757         0.92266
C         64.92115        67.13549         0.94199
C         63.69806        67.83664         0.63003
C         64.85120        69.99507         0.87155
C         63.67580        69.24545         0.63328
C         64.81301        71.42603         0.87342
C         63.57831        72.13144         0.54440
C         64.76789        74.28117         0.77189
C         63.57939        73.59538         0.50629
C         66.09492        67.88509         1.16031
C         67.26364        70.05700         1.35072
C         66.09154        69.29948         1.11304
C         67.23679        71.46228         1.33891
C         65.99893        72.15456         1.08746
C         67.18273        74.29900         1.27758
C         65.98657        73.59610         1.04441
C         68.41887        72.22908         1.56726
C         68.38131        73.61361         1.53909
O         45.50057        61.52759        -2.78357
O         54.07575        72.82836        -2.60389
O         44.07058        47.09501         3.09125
O         45.20617        36.47647        -1.18669
O         49.61223        43.65579         2.07247
O         30.14864        69.02689         2.29246
O         38.69440        67.14533         0.90052
O         47.15747        69.34002        -3.30160
O         29.56814        72.82841         2.54333
O         40.60324        71.52608        -2.73497
O         57.91883        58.59716        -0.65806
O         30.71641        60.76605        -1.80626
O         40.39781        41.40709         0.96473
O         52.16008        67.18213        -2.67561
O         39.80467        60.50722        -2.62210
O         60.63170        67.27526        -1.36136
O         43.89531        59.22313        -2.20000
O         59.39405        69.77916         1.45588
O         42.12417        61.06242         0.32255
O         45.75482        42.33042        -1.40096
O         43.91836        63.36335        -3.44541
H         44.32909        62.53678        -3.79932
O         33.94348        67.84106        -2.17353
H         34.74431        68.34994        -2.46318
O         40.53183        45.83055        -0.23869
H         40.48997        46.78545        -0.46150
O         36.58075        64.17548         0.98392
H         36.70182        64.96543         1.55150
O         43.79756        68.54761        -3.35157
H         43.76124        69.36287        -3.89461
O         42.39378        39.32312         0.96162
H         42.20465        38.39404         0.70838
O         30.72241        66.33393         1.92698
H         30.71180        67.12799         2.51325
O         33.37789        70.50651         2.14954
H         33.58789        71.22824         2.77813
O         61.89852        69.88759         2.03901
H         62.56829        70.33409         2.59835
O         45.18274        39.71322         1.08925
H         44.25849        39.52465         1.38609
O         57.42053        62.62677         2.21102
H         57.74476        63.45726         2.62212
O         47.12904        59.67968        -2.24865
H         46.85552        60.27018        -2.98965
O         34.70257        60.85245        -2.54211
H         35.49525        60.93633        -3.12188
O         56.63656        52.57459        -0.81824
H         55.93318        52.19254        -1.38456
O         40.07002        52.90356         2.80781
H         39.17264        53.28325         3.00443
O         42.76038        44.85265         3.25127
H         41.87404        44.46490         3.44118
O         48.09634        66.78395        -3.39233
H         47.87412        67.67335        -3.76435
O         48.61392        47.94978        -0.78747
H         48.60187        48.89856        -1.03858
O         35.60448        69.87892        -1.89835
H         34.92278        70.51274        -2.21607
O         48.46372        67.62702         0.17040
H         49.21759        67.98583         0.68783
O         23.69516        67.78797        -0.53897
H         24.43040        68.10008        -1.11715
O         48.40569        59.74948         2.16316
H         49.26309        59.89146         2.63881
O         37.54055        45.13797         2.95030
H         38.40603        44.71134         3.17812
O         31.58978        52.08539         0.67725
H         31.73093        52.09235        -0.29145
O         61.45664        64.42911        -1.17898
H         61.25723        65.21239        -1.74041
O         55.01264        57.24162         3.17427
H         55.93322        57.51083         3.42972
O         53.72742        59.61319         2.94759
H         54.03522        58.75835         3.35668
O         41.51723        50.52775        -0.68802
H         42.34870        50.97171        -0.96351
O         36.46159        63.78580        -2.65549
H         36.61765        62.97838        -3.20184
O         46.19013        39.29922        -3.28371
H         46.84982        40.02500        -3.31296
O         61.55241        72.23275        -1.79276
H         61.70976        71.30389        -2.09419
O         26.47731        68.08226        -1.11449
H         26.71666        67.26799        -1.60762
O         51.48174        69.07990         0.32577
H         51.52966        70.01618         0.61526
O         57.20563        71.60605         1.54323
H         57.94918        71.13239         1.98658
O         57.72227        57.56259         2.88766
H         58.08272        56.78417         3.36448
O         39.90382        43.82990         2.76084
H         39.80885        42.85362         2.81923
O         44.15858        67.99931         0.23355
H         44.22121        67.18017         0.76780
O         51.06333        59.69791         2.68417
H         51.97965        59.86346         3.04406
O         58.63944        67.38018         1.82398
H         59.06536        68.13184         2.30168
O         38.90068        58.10794        -2.36473
H         39.47732        58.62094        -2.97792
O         34.47665        60.94899         1.10563
H         33.81513        60.60574         1.74141
O         52.64815        69.64935        -3.11829
H         53.33996        70.23707        -3.48780
O         61.01984        64.07323         2.44031
H         61.05529        63.29519         3.03530
O         54.75505        63.23803         2.13158
H         55.54223        62.87526         2.60632
O         58.70927        52.19776         0.92976
H         58.69576        52.26012        -0.05003
O         30.13953        66.19211        -1.68892
H         30.20874        65.46314        -2.34070
O         47.48983        54.50088         3.05560
H         46.80893        53.87937         3.39365
O         37.65312        54.15389         2.54905
H         37.76109        55.08477         2.85535
O         57.37722        61.46668        -1.26418
H         57.46997        60.55030        -1.60953
O         46.47134        50.73249         3.32194
H         46.40227        49.80541         3.63798
O         32.61895        70.37731        -1.42506
H         32.65274        69.59579        -2.02671
O         37.73341        52.91058        -0.90716
H         37.79986        52.01258        -1.29473
O         40.90374        46.43237         3.34303
H         41.67229        46.72530         3.88075
O         41.26416        63.25789        -3.19496
H         42.16238        63.43266        -3.58825
O         60.51870        58.36376        -0.99428
H         59.70307        58.13255        -1.49464
O         57.83020        65.39298        -1.84509
H         56.98342        65.56604        -2.30885
O         38.92502        56.79309         2.09497
H         39.81867        56.59995         2.45451
O         37.38371        61.17942        -3.02698
H         38.27997        61.16402        -3.45186
O         36.68676        69.06370         1.50782
H         37.44576        68.50090         1.79185
O         61.63298        69.57814        -1.58027
H         61.23876        68.86092        -2.13211
H         23.34531        75.25293         2.24329
H         25.77411        75.22063         1.76459
H         27.95258        75.20672         0.82052
H         30.72675        75.12336         0.36156
H         33.09143        75.10187         0.65054
H         35.49318        75.11882         0.20493
H         37.94212        75.11487        -0.34875
H         40.31695        75.09564        -0.88972
H         42.79265        75.07518        -1.14115
H         45.18600        75.06511        -1.34948
H         47.62242        75.10720        -1.34640
H         50.08036        75.14695        -1.20137
H         52.46913        75.18833        -0.87002
H         55.03696        75.28824        -0.67672
H         57.43323        75.29533        -0.32609
H         59.86477        75.35022         0.11239
H         62.32658        75.37381         0.49609
H         64.76819        75.38186         0.76992
H         67.17714        75.39808         1.24764
H         22.22780        69.43699         1.52203
H         21.08692        71.56994         2.04591
H         21.17339        74.03962         2.37090
H         24.59007        65.12909         1.08083
H         23.45754        67.27906         1.45561
H         26.90826        60.79923         0.53873
H         25.74503        62.95650         0.74720
H         29.32693        56.50464         0.46562
H         28.12009        58.63000         0.36837
H         32.44682        52.80510         2.39682
H         30.56850        54.37912         0.84287
H         34.23759        47.97610         1.23231
H         33.01391        50.14211         1.26593
H         36.85836        44.10580         0.06178
H         35.44130        45.87437         1.35916
H         39.40211        40.18167        -2.00060
H         38.28033        42.66700        -1.33092
H         41.68939        36.30674        -3.35277
H         40.52053        38.27173        -2.51674
H         45.05968        33.45473        -5.19786
H         42.91236        34.45967        -4.49584
H         47.23658        34.42399        -4.53567
H         48.53580        36.09811        -3.19148
H         49.78364        37.82088        -1.88314
H         51.02259        39.75774        -0.97784
H         52.25257        41.74059        -0.30943
H         53.49334        43.86881        -0.04453
H         54.72127        45.96201         0.30347
H         55.96440        48.08294         0.49909
H         57.18874        50.18672         0.53294
H         57.37023        52.52392         2.46884
H         59.67973        54.36712         1.20616
H         60.89712        56.41229         0.67722
H         62.18683        58.75127         1.20198
H         63.36207        60.84491         1.30688
H         64.64216        63.02674         1.22924
H         65.83784        65.19394         1.31074
H         67.03264        67.36073         1.39810
H         68.21223        69.53533         1.54713
H         69.36514        71.70436         1.76268
H         69.30177        74.18777         1.71616
