         671
 CSIRO Nanostructure Databank - Neutral Graphene Oxide Data Set
C          5.94831        31.85280         0.44021
C          6.01939        33.19403         0.68930
C          8.31863        27.59531        -0.12587
C          8.23789        28.95316        -0.38171
C          7.07850        29.72400        -0.07190
C          8.30596        31.86272        -0.30379
C          7.10044        31.11674        -0.01121
C          8.39047        33.20830        -0.01464
C          7.25476        33.91396         0.52984
C          8.61389        35.95065         0.84639
C          7.35865        35.26639         0.85781
C          8.68372        37.31151         1.01808
C         10.80735        23.38767         0.08876
C         10.79439        24.73394        -0.21962
C          9.58780        25.49821        -0.06055
C         10.73366        27.55948        -0.76622
C          9.53362        26.85673        -0.31791
C         10.68716        28.90657        -1.04935
C          9.41592        29.64210        -0.95131
C         10.77730        31.82955        -0.93080
C          9.45400        31.15316        -0.91058
C         10.84317        33.21437        -0.66627
C          9.60422        34.03891        -0.38896
C         11.20860        35.83092         0.66266
C          9.84969        35.06095         0.75343
C         11.12018        37.34647         0.60783
C          9.92754        38.04042         0.91871
C         11.17527        40.15531         0.98298
C          9.95694        39.43733         1.07360
C         11.20799        41.56259         1.19621
C         13.37040        19.27485         1.35399
C         13.37340        20.65003         0.73617
C         12.16804        21.27900         0.61247
C         13.27209        23.26920        -0.49710
C         12.01296        22.57217        -0.07638
C         13.24767        24.73095        -0.72196
C         12.00712        25.43438        -0.64229
C         13.18514        27.51930        -1.22604
C         11.97250        26.81376        -0.89869
C         13.16490        28.90229        -1.46759
C         11.86005        29.63647        -1.65746
C         13.18898        31.76410        -1.33121
C         11.93938        31.09676        -1.24132
C         13.24629        33.15579        -1.02351
C         12.08830        33.87543        -0.70601
C         13.49426        35.99988        -0.33850
C         12.11014        35.37716        -0.51312
C         13.54667        37.34048         0.06130
C         12.33492        38.06207         0.42417
C         13.68170        40.18941         0.79274
C         12.37192        39.45333         0.65404
C         13.57640        41.66362         0.51178
C         12.35942        42.34118         0.90527
C         13.39313        44.56951         0.50236
C         12.33759        43.73909         1.05060
C         13.57071        45.97321         0.84481
C         15.99445        15.08276         2.06031
C         15.95106        16.54770         2.02878
C         14.70671        17.25742         1.72594
C         15.93705        19.27247         1.00956
C         14.70451        18.56451         1.34465
C         15.84667        20.62245         0.44334
C         14.62526        21.26092         0.32429
C         15.66441        23.12147        -1.07805
C         14.60944        22.73048        -0.03651
C         15.69352        24.63907        -1.18732
C         14.45018        25.38942        -1.00710
C         15.63772        27.49246        -1.52532
C         14.43781        26.80484        -1.24694
C         15.63306        28.88562        -1.74726
C         14.38045        29.61773        -1.68204
C         15.58896        31.75745        -2.22576
C         14.37227        31.02592        -1.71028
C         15.71295        33.13900        -1.61989
C         14.55618        33.83784        -0.99112
C         15.90380        35.95367        -0.94636
C         14.65266        35.29322        -0.75436
C         16.04177        37.34801        -0.47932
C         14.83818        38.05384         0.08509
C         15.97830        40.25565        -0.23390
C         14.85350        39.53350         0.10701
C         15.95224        41.69403        -0.15106
C         14.72820        42.36414         0.16644
C         15.93224        44.58584        -0.07719
C         14.67458        43.82503        -0.01197
C         15.91094        45.99185        -0.00286
C         14.71160        46.67759         0.47563
C         15.88776        48.84910         0.32252
C         14.78156        48.08383         0.69855
C         15.91471        50.22789         0.53169
C         18.32311        10.72507         2.31738
C         18.35067        12.23863         2.19030
C         17.20210        12.94929         2.15762
C         18.42906        15.09312         1.70408
C         17.18047        14.39993         2.01451
C         18.44596        16.47162         1.51612
C         17.25590        17.30502         1.76187
C         18.44014        19.48377         1.04624
C         17.16519        18.66144         1.17092
C         18.32745        20.63509         0.07153
C         17.07292        21.26751        -0.05909
C         18.18074        23.12012        -1.22045
C         17.00897        22.51470        -0.73080
C         18.08274        24.49348        -1.79450
C         16.85233        25.27595        -1.51840
C         18.11093        27.44891        -2.01285
C         16.95450        26.77120        -1.33350
C         18.11822        28.85024        -2.01426
C         16.87375        29.58417        -1.89965
C         18.10794        31.68284        -1.90054
C         16.89095        30.99842        -2.00859
C         18.17331        33.15629        -2.03065
C         16.88775        33.95905        -2.02781
C         18.19105        36.13782        -2.09590
C         16.96558        35.36836        -1.64094
C         18.25640        37.53566        -1.52973
C         17.19649        38.14258        -0.94131
C         18.15224        40.35580        -1.61949
C         17.32398        39.59719        -0.53921
C         18.15016        41.84399        -1.27261
C         17.09472        42.45555        -0.56108
C         18.30445        44.64386        -0.71084
C         17.12284        43.89147        -0.41369
C         18.29343        46.06784        -0.59187
C         17.10299        46.72576        -0.26814
C         18.34694        48.91805        -0.26856
C         17.01812        48.21695        -0.45756
C         18.33039        50.29979        -0.03597
C         17.08107        50.99857         0.24475
C         18.24314        53.23859         0.12932
C         17.03011        52.38019         0.26053
C         18.12264        54.24591         1.24940
C         21.03841         7.24587         4.66569
C         20.95928         8.44921         3.93347
C         19.70432         9.01096         3.55647
C         20.84766        10.76570         2.32180
C         19.64801        10.15001         2.77018
C         20.68434        11.95144         1.39918
C         19.69715        12.92552         2.09216
C         20.75841        14.89554         0.90897
C         19.62559        14.31173         1.48610
C         20.80769        16.29958         0.65633
C         19.69539        17.13705         1.13524
C         20.80321        19.15024         0.02384
C         19.70241        18.63251         0.86403
C         20.71797        20.39678        -0.58887
C         19.48603        21.16716        -0.56263
C         20.60982        23.03155        -1.95158
C         19.41007        22.43473        -1.21079
C         20.64281        24.54709        -1.91880
C         19.34970        25.21473        -2.16200
C         20.59808        27.40428        -1.85989
C         19.35545        26.70860        -2.45996
C         20.66191        28.86884        -2.32898
C         19.35788        29.58627        -2.02390
C         20.57163        31.63955        -1.33056
C         19.33622        30.95526        -1.79705
C         20.58323        33.13186        -1.15863
C         19.34465        33.91374        -1.52102
C         20.58595        36.04058        -1.01411
C         19.42100        35.35338        -1.68819
C         20.70523        37.50006        -1.40618
C         19.53515        38.24629        -1.59300
C         20.80465        40.28173        -1.87241
C         19.54430        39.66967        -1.72289
C         20.95752        41.67950        -2.21382
C         19.09371        42.71727        -1.82859
C         20.62583        44.74322        -1.90463
C         19.38606        44.00552        -1.37968
C         20.68265        46.13285        -1.26716
C         19.54443        46.79313        -0.82669
C         20.80367        48.92910        -0.51131
C         19.56294        48.22320        -0.53568
C         20.82636        50.34420        -0.14114
C         19.55389        51.05676         0.02527
C         20.75869        53.14979         0.53744
C         19.52194        52.43097         0.19355
C         20.57684        54.20601         1.59988
C         19.21884        54.71585         1.95408
C         20.40504        56.57712         3.08961
C         19.19267        55.90936         2.71376
C         20.42388        57.92700         3.48410
C         23.61663         4.82306         5.89233
C         22.37506         5.40812         5.63601
C         23.49226         7.37854         4.66353
C         22.28635         6.67745         4.99647
C         23.42807         8.59868         3.95712
C         22.16574         9.11362         3.53794
C         23.33403        10.92862         2.28536
C         22.09788        10.28080         2.72132
C         23.29501        12.03845         1.47300
C         22.00662        12.62161         1.02462
C         23.28009        14.82377         0.61218
C         21.99126        14.08182         0.69224
C         23.16198        16.10194        -0.19900
C         21.97308        16.95683         0.18511
C         23.26550        19.06818        -0.32488
C         21.97520        18.32688        -0.10252
C         23.17321        20.22164        -1.30493
C         21.81203        20.88001        -1.53167
C         23.16161        23.11053        -1.92926
C         21.90490        22.42510        -1.39604
C         23.11526        24.48700        -2.10281
C         21.85920        25.23147        -2.01956
C         23.12074        27.38553        -2.11200
C         21.90123        26.66558        -2.09596
C         23.10553        28.83312        -1.86468
C         21.91563        29.51672        -1.79256
C         23.12937        31.70286        -1.33748
C         21.87729        30.91774        -1.34510
C         23.09134        33.08796        -1.26731
C         21.87421        33.86053        -1.19769
C         23.13783        35.97222        -1.07574
C         21.88116        35.25232        -1.18889
C         23.18444        37.43693        -1.17255
C         21.96544        38.15587        -1.35817
C         23.26300        40.23513        -1.62203
C         22.01740        39.55359        -1.62340
C         23.33244        41.70933        -1.96825
C         22.02580        42.48155        -1.87236
C         23.17504        44.62906        -1.61990
C         21.98085        43.94875        -1.79735
C         23.24677        46.12342        -1.60308
C         21.94686        46.88372        -1.37236
C         23.26815        48.87412        -0.57304
C         22.00790        48.25632        -0.81913
C         23.32838        50.36265        -0.34419
C         22.01284        51.02312        -0.05693
C         22.93381        52.46159         1.71191
C         22.11440        52.46512         0.35777
C         22.95408        53.80784         2.37122
C         21.60988        54.40346         2.69190
C         22.82898        56.43964         3.49755
C         21.64622        55.85244         3.08633
C         22.86671        57.83565         3.76426
C         21.64881        58.58338         3.76543
C         22.92898        60.60448         4.26420
C         21.70693        59.97839         4.04853
C         24.79995         5.47625         5.56076
C         25.95009         7.48393         4.73424
C         24.77875         6.78319         4.98094
C         25.91255         8.92723         4.33281
C         24.63767         9.30759         3.61488
C         25.84333        11.06475         2.37395
C         24.60658        10.40251         2.76770
C         25.82485        12.19821         1.59131
C         24.55240        12.68175         0.94219
C         25.74935        14.91704         0.67744
C         24.46244        14.20042         0.85385
C         25.74575        16.20052        -0.07890
C         24.44504        16.86979        -0.34611
C         25.70233        18.85759        -1.08422
C         24.46070        18.19463        -0.59769
C         25.75476        20.37040        -0.99119
C         24.45056        20.96187        -1.54829
C         25.63950        23.07223        -2.03473
C         24.42874        22.41384        -1.88382
C         25.65504        24.48082        -2.48445
C         24.33429        25.24400        -2.46609
C         25.60524        27.41953        -2.09557
C         24.36688        26.71421        -2.24593
C         25.56900        28.84004        -1.85156
C         24.36517        29.54494        -1.68855
C         25.59220        31.65428        -1.23660
C         24.37290        30.96488        -1.44352
C         25.52201        33.06898        -0.70062
C         24.39019        33.84486        -1.37523
C         25.54423        36.01512        -0.47082
C         24.30215        35.26391        -0.89785
C         25.65681        37.21824        -1.44596
C         24.41666        38.09973        -1.30513
C         25.74748        40.24653        -1.52415
C         24.46724        39.51501        -1.48417
C         25.77771        41.61661        -1.44086
C         24.50726        42.39764        -1.33492
C         25.74496        44.63962        -1.38826
C         24.44967        43.89214        -1.33307
C         25.74865        46.03256        -0.91718
C         24.58720        46.87477        -1.38570
C         25.70037        48.78065        -0.12689
C         24.48154        48.18476        -0.62920
C         25.64446        50.04725         0.54648
C         24.41797        50.76968         0.62594
C         25.45596        52.45127         2.07681
C         24.30136        51.89480         1.43266
C         25.34103        53.62676         2.86521
C         24.09920        54.32874         2.93040
C         25.34378        56.34918         3.69996
C         24.03703        55.58231         3.78670
C         25.33454        57.75608         3.81973
C         24.12753        58.49611         3.95919
C         24.13126        59.88721         4.20363
C         27.14763         9.38399         3.61515
C         28.33768        11.05322         2.26820
C         27.12232        10.47659         2.78056
C         28.33467        12.26542         1.59583
C         27.05692        12.91207         1.30410
C         28.28675        15.05047         0.78672
C         27.03246        14.20056         0.82145
C         28.24858        16.13253        -0.25782
C         26.96908        16.57100        -0.90043
C         28.26554        18.77669        -1.39302
C         26.96476        18.06895        -1.25503
C         28.19477        20.14992        -2.04359
C         26.96296        20.96296        -1.66804
C         28.12610        23.06309        -1.96858
C         26.92061        22.35612        -1.90343
C         28.17309        24.53232        -2.04343
C         26.92073        25.27560        -2.34719
C         28.05852        27.33624        -1.59879
C         26.85872        26.72128        -2.03481
C         28.14123        28.80327        -1.59688
C         26.82791        29.59321        -1.79956
C         28.05460        31.63674        -1.04826
C         26.82201        30.99152        -1.35544
C         28.09255        33.14435        -1.16008
C         26.81311        33.85167        -0.77891
C         28.06387        35.94040        -0.19891
C         26.80580        35.18495        -0.54879
C         28.16967        37.32507        -0.79221
C         26.98832        37.96564        -1.39212
C         28.30099        40.15410        -1.21975
C         27.02788        39.48074        -1.56212
C         28.36073        41.61584        -1.41864
C         27.05264        42.36346        -1.54762
C         28.19642        44.51221        -0.69774
C         27.02805        43.86187        -1.36770
C         28.19571        45.96642        -0.58720
C         26.96464        46.67112        -0.60932
C         28.07388        48.60554         0.51691
C         26.93009        48.05737        -0.11679
C         28.03314        49.87234         1.12636
C         26.79590        50.58093         1.19918
C         27.89744        52.37577         2.52784
C         26.71047        51.79791         1.92546
C         27.80436        53.51505         3.30991
C         26.49434        54.11999         3.69940
C         26.51838        55.61807         3.63631
C         29.54448        12.91831         1.19169
C         30.75272        14.93286         0.44749
C         29.56033        14.23143         0.73164
C         30.74973        16.21122        -0.15188
C         29.50169        16.64354        -0.89153
C         30.75477        18.77199        -1.61803
C         29.44393        18.14404        -1.18781
C         30.69345        20.28568        -1.71954
C         29.47719        20.92420        -1.87193
C         30.66430        23.17908        -1.93141
C         29.42302        22.37614        -2.25909
C         30.65375        24.54541        -1.74980
C         29.30617        25.12142        -1.22166
C         30.14562        27.32089        -0.32507
C         29.17222        26.62254        -1.07233
C         30.33155        28.73519        -0.41515
C         29.25493        29.49285        -0.93366
C         30.31156        31.56496         0.02670
C         29.22417        30.90178        -0.79961
C         30.58625        32.99024        -0.50599
C         29.31251        33.80164        -0.56991
C         30.56317        35.88573        -0.16307
C         29.32514        35.14627        -0.37222
C         30.57938        37.29656        -0.23893
C         29.36058        38.01055        -0.63726
C         30.74881        40.11274        -0.72532
C         29.42700        39.43825        -0.88415
C         30.84286        41.62079        -0.88279
C         29.58986        42.34511        -1.07495
C         30.78700        44.46746        -0.49967
C         29.50697        43.70555        -0.59719
C         30.75924        45.95309        -0.32277
C         29.47153        46.77113        -0.43425
C         30.58238        48.54992         0.96054
C         29.31317        47.75523         0.72155
C         30.49076        49.83432         1.49349
C         29.23289        50.48642         1.67069
C         29.15282        51.71953         2.31373
C         31.88968        17.01171        -0.17218
C         33.06938        19.07411        -0.72757
C         31.93044        18.29988        -0.78053
C         33.13940        20.39647        -1.31522
C         31.92568        21.00198        -1.79548
C         33.24226        23.20884        -2.08276
C         31.92186        22.44013        -2.15140
C         33.14601        24.61297        -1.66458
C         31.92043        25.26373        -1.66889
C         33.00098        27.45732        -0.89137
C         31.98281        26.76648        -1.75907
C         32.88807        28.67233        -0.25964
C         31.61184        29.40386        -0.11986
C         32.83317        31.47787         0.54532
C         31.60519        30.76556         0.09806
C         32.92181        32.94235         0.42101
C         31.62108        33.70138         0.39687
C         32.95448        35.84717         0.25894
C         31.74929        35.16558         0.05374
C         32.96960        37.25834         0.29463
C         31.79159        37.97421         0.03460
C         33.12109        40.14273         0.17073
C         31.75928        39.47219         0.21409
C         33.16556        41.57126         0.07913
C         32.00414        42.31856        -0.26874
C         33.17544        44.41272         0.28446
C         31.99751        43.70451        -0.12598
C         33.10588        45.82880         0.51161
C         31.93637        46.57081         0.34434
C         31.82302        47.89678         0.83108
C         34.34435        21.08338        -1.29647
C         35.65057        23.19008        -1.27363
C         34.55129        22.42390        -1.95424
C         35.63585        24.51663        -0.96886
C         34.30152        25.26859        -0.91873
C         35.39434        27.58502        -1.08106
C         34.30129        26.78652        -1.02520
C         35.40681        29.00534        -0.59596
C         34.19078        29.23813         0.33142
C         35.40813        31.48277         0.64359
C         34.13600        30.72212         0.65111
C         35.36123        32.86296         0.75907
C         34.12493        33.59268         0.57371
C         35.50038        35.80141         0.54621
C         34.20458        35.05528         0.31644
C         35.47617        37.24645         0.74153
C         34.16744        37.97713         0.86699
C         35.52066        40.10608         0.73728
C         34.26424        39.43320         0.49649
C         35.54152        41.51706         0.71151
C         34.37356        42.26643         0.42378
C         34.35541        43.68419         0.50832
C         36.81604        25.07535        -0.31178
C         38.04517        27.22423         0.28673
C         37.20170        26.40142        -0.47199
C         37.92271        28.66526         0.30594
C         36.70860        29.41874         0.12358
C         37.87672        31.43183         0.94189
C         36.67744        30.75981         0.58818
C         37.87484        32.83595         1.36068
C         36.56274        33.61816         1.17271
C         37.87614        35.74444         1.27332
C         36.66931        35.05612         1.00594
C         37.88211        37.15987         1.22399
C         36.68333        37.92047         1.03112
C         36.68056        39.35015         1.06298
C         39.09919        29.36659         0.68703
C         40.34759        31.48972         1.11302
C         39.11848        30.75046         0.88794
C         40.35931        32.84225         1.28883
C         39.13401        33.60838         1.34798
C         39.10183        34.98482         1.42716
O         13.66489        44.28192        -0.92788
O         28.58613        43.84601         0.56731
O         31.18112        33.70627         1.74535
O         35.05521        35.36473        -0.84502
O         15.57357        33.10053        -0.17306
O         12.54075        22.50092        -1.48159
O         32.61704        22.89582        -3.36940
O          9.12101        30.45510        -2.16790
O         24.31800        43.09350        -0.07278
O         16.71706        17.18315         3.12215
O         27.81127        42.00801        -2.75124
O         26.09042        18.33750        -2.39978
O         22.54461        46.73855        -2.73049
O         33.33981        30.96480         1.85459
O         15.85935        37.46426         0.98998
O         20.86356        54.57880         0.22178
O         17.57317        33.63134        -3.27976
O         19.66586        33.51166        -0.09036
O         27.95053        25.01316        -3.40794
O         27.22472        38.57835        -2.70953
O         20.17156        18.13659         2.16258
O         36.59875        27.08597        -1.55439
O         25.87006        16.23484         1.39327
O         27.76166        29.35982        -2.89421
O         18.52036        24.52431        -3.21664
O         23.88021        20.06184        -2.56329
O         19.86500        42.23026        -2.89143
O         31.41776        27.34935        -2.67116
O         21.95445        13.05449        -0.40416
O         21.08000        31.01884        -0.08284
O         31.27166        40.66957        -1.94847
O         26.57624        44.48916        -2.60492
O         37.02844        33.15724         2.50146
O         24.93715        24.76483        -3.71980
O         31.05781        45.36513        -1.64168
O         12.35709        18.46020         0.74426
H         12.49660        18.47397        -0.22491
O         25.01857        47.31492        -2.71857
H         24.20224        47.38166        -3.27094
O         29.60501        47.57996        -1.62761
H         29.93691        46.98838        -2.34002
O         31.00287        18.29418        -2.97116
H         30.67715        17.36057        -3.01181
O         11.56372        35.98519        -1.71005
H         12.01647        35.60332        -2.48961
O          9.84145        34.25395         1.94854
H         10.50416        34.63080         2.57139
O         23.53243        19.71039         0.96349
H         23.48779        19.02713         1.66547
O         17.25721        10.30989         3.17453
H         17.41060        10.69175         4.06274
O         28.37964        15.72079         2.10497
H         27.51189        16.17727         2.23772
O         14.90766        23.44766         1.19070
H         15.77359        23.13519         1.52943
O         23.77950        50.91008        -1.64894
H         24.60832        50.44259        -1.89477
O         26.22686        53.72829         5.12881
H         26.23292        52.74744         5.16463
O         33.90062        25.06365         0.49487
H         34.57708        25.50274         1.05557
O         20.50860        22.70413        -3.35596
H         19.70382        23.16210        -3.69816
O         35.04854        22.13211        -3.29458
H         34.25404        22.07677        -3.87806
O         29.09272        46.95581         1.91552
H         28.98653        47.56459         2.67593
O         18.57249        20.13927         2.34496
H         19.01764        19.48808         2.93766
O         29.39968        22.35569        -3.74863
H         29.17413        23.26607        -4.05356
O         20.40448        44.96688        -3.32262
H         20.32552        44.08037        -3.74111
O         17.46411        40.18938        -2.87503
H         17.97778        40.65687        -3.56678
O         18.08274        39.66698         0.69373
H         17.71621        38.98774         1.30163
O         18.25023        53.95548        -1.14532
H         19.07836        54.48641        -1.16035
O         17.25606        26.90216         0.11903
H         17.45352        27.84749         0.29631
O         18.14011        36.29226        -3.54852
H         18.01167        35.38920        -3.92545
O         31.11530        32.84086        -1.84221
H         31.29614        33.73353        -2.20586
O         20.33377        36.07133         0.43233
H         20.12542        35.14131         0.70020
O         30.91147        26.58332         0.53911
H         31.57598        27.15423         0.98032
O         16.66189        48.41681        -1.86794
H         17.36130        47.99968        -2.41476
O         21.37856        20.47156        -2.83483
H         22.16901        20.46647        -3.42199
O         27.97732        36.15917         1.26905
H         28.48071        35.44271         1.71510
O         15.26697        22.55697        -2.34762
H         15.93069        22.81444        -3.02077
O         25.88288         9.69277         5.61032
H         25.87307        10.64486         5.37241
O         19.42269        26.81131        -3.90741
H         18.87750        26.07282        -4.26868
O         25.57711        36.63199        -2.77609
H         26.00512        37.27341        -3.39306
O         35.24622        29.90890        -1.71883
H         35.92053        29.68002        -2.39249
O         29.60985        16.00720        -2.22698
H         28.68099        15.88292        -2.55558
O         26.84924        15.86230        -2.17988
H         26.31265        16.45119        -2.76726
O         22.89079        15.62001        -1.55910
H         22.22240        14.90234        -1.50900
O         21.93481        22.66914         0.03506
H         21.83533        23.63305         0.18633
O         33.89447        37.98888         2.33313
H         34.65169        38.44290         2.76361
O         20.21267        13.11177         3.44544
H         19.63357        13.75879         3.90161
O         20.04787        11.47150         0.19577
H         20.46201        11.95154        -0.55990
O         22.24179        51.52755         2.59134
H         21.71056        52.05600         3.24117
O         29.74895        31.64223         1.35380
H         30.28337        32.34555         1.84503
O         11.61024        29.65763        -3.10984
H         10.68187        29.98410        -3.21528
O         13.99171        40.08249         2.24634
H         14.89627        40.43992         2.37694
O         24.66530        12.28534        -0.46742
H         23.79209        12.48410        -0.88356
O         21.09487        53.64544         3.85234
H         21.62994        53.92624         4.62872
O         23.85980        55.12226         5.16128
H         24.69013        54.62864         5.40201
O         29.13616        24.51551         0.09143
H         29.82797        24.89655         0.67844
O         31.24864        39.71083         1.56156
H         31.80892        39.18964         2.17950
O         25.33159        36.51611         0.86187
H         26.18626        36.44711         1.35516
O         25.17310        32.96678         0.70676
H         25.90033        32.50550         1.17422
O         20.37074        27.40607        -0.42664
H         21.01710        28.01885        -0.01391
O         28.04748        19.90897        -3.47954
H         28.41757        20.69767        -3.94641
O         34.44844        28.53218         1.56919
H         34.02649        29.06198         2.28437
O         22.86203        53.22348        -0.59969
H         23.31167        52.60096        -1.22094
O          9.25012        34.77183        -1.58552
H          9.03405        34.12450        -2.28819
O         20.83882        28.97670        -3.76448
H         20.25218        28.31396        -4.20372
O         23.66253        41.75678        -3.40008
H         22.99646        41.23014        -3.89029
O         25.90171        20.70271         0.41566
H         25.71784        21.65756         0.53564
O         15.39050        31.93221        -3.65638
H         15.29516        31.04549        -4.06289
O         11.92612        35.54026         1.89145
H         12.75956        36.05966         1.89983
O         24.68507        33.94839        -2.79863
H         25.14681        34.80954        -2.96147
O         28.22720        33.36895        -2.60941
H         29.00539        32.84809        -2.90976
H          5.00970        31.30482         0.60852
H          5.13646        33.73797         1.05596
H          7.44216        27.06682         0.27838
H          6.16706        29.19233         0.24106
H          6.45323        35.82276         1.14763
H          7.75638        37.88880         1.15840
H          9.90165        22.91581         0.49940
H          8.67875        24.97481         0.27185
H          9.02663        39.97782         1.30247
H         10.28027        42.07567         1.49080
H         13.06938        19.38257         2.43378
H         11.26268        20.76819         0.97567
H         11.50494        44.21687         1.58801
H         12.76670        46.49143         1.38832
H         15.04613        14.53097         2.14719
H         13.74738        16.73698         1.86972
H         13.92312        48.58466         1.17242
H         15.03211        50.73424         0.95130
H         18.09603        10.30146         1.30079
H         16.23735        12.42929         2.26455
H         16.06365        52.87648         0.43547
H         17.13414        54.69880         1.42028
H         20.11288         6.72161         4.94661
H         18.77204         8.52501         3.88004
H         18.23549        56.43648         2.84664
H         19.48486        58.49928         3.51654
H         23.65941         3.83143         6.36473
H         21.45005         4.87647         5.90137
H         22.95649        61.68418         4.46844
H         20.77484        60.56083         4.07575
H         25.76971         5.00686         5.78006
H         26.92276         7.02723         4.97287
H         26.29493        58.29289         3.86316
H         25.08860        60.40841         4.34732
H         28.11318         8.94051         3.90300
H         29.29307        10.56368         2.50966
H         28.71365        53.92249         3.77701
H         27.48191        56.13482         3.50549
H         30.48908        12.35486         1.24763
H         31.71718        14.48798         0.74256
H         31.40885        50.36943         1.78072
H         30.06635        52.17771         2.72076
H         32.79085        16.66145         0.35746
H         33.96447        18.69233        -0.21164
H         33.98636        46.32505         0.94833
H         32.73001        48.40440         1.19545
H         35.23561        20.57135        -0.90214
H         36.59734        22.63879        -1.15766
H         36.47354        42.04698         0.95799
H         35.27768        44.21687         0.78389
H         37.41148        24.41267         0.33533
H         38.80956        26.77577         0.93921
H         38.82958        37.69680         1.37967
H         37.62035        39.88077         1.27333
H         40.03816        28.79996         0.77430
H         41.29539        30.93229         1.08777
H         41.31479        33.37699         1.39552
H         40.04817        35.54387         1.48682
