         647
 CSIRO Nanostructure Databank - Neutral Graphene Oxide Data Set
C          5.83948        31.56733         0.28051
C          5.80373        32.92886         0.32028
C          8.41543        27.35205         0.14756
C          8.37620        28.74767         0.18862
C          7.13448        29.45753         0.20016
C          8.31595        31.60452         0.18660
C          7.09076        30.84615         0.22568
C          8.27491        33.01123         0.19870
C          7.01709        33.71482         0.29227
C          8.20492        35.87281         0.42386
C          6.99045        35.10061         0.39116
C          8.21297        37.21837         0.77830
C         10.95754        23.03250         0.16582
C         10.84708        24.46538         0.48382
C          9.65376        25.23663         0.14052
C         10.89065        27.37263         0.34210
C          9.64348        26.62522         0.23610
C         10.86615        28.79795         0.23518
C          9.61046        29.49779         0.19554
C         10.79611        31.65270         0.04781
C          9.57445        30.90682         0.15122
C         10.75825        33.07458        -0.05231
C          9.48665        33.77466         0.08230
C         10.65115        35.96463        -0.10141
C          9.43593        35.16371         0.13544
C         10.68647        37.34063         0.47888
C          9.48114        37.90784         1.22855
C         10.69398        40.13303         1.07212
C          9.51034        39.42346         1.07744
C         10.76597        41.56399         0.96148
C         13.38733        18.79395        -0.20422
C         13.36794        20.20281        -0.06851
C         12.18655        20.92962        -0.08248
C         13.43492        23.04637         0.29929
C         12.16335        22.35030         0.13745
C         13.42485        24.47089         0.67121
C         12.13300        25.24007         0.72619
C         13.34377        27.41959         0.34935
C         12.12772        26.69827         0.45685
C         13.32877        28.82408         0.15729
C         12.08406        29.52577         0.15367
C         13.23291        31.70901        -0.17368
C         12.04674        30.96635         0.01233
C         13.18304        33.10568        -0.34984
C         11.95134        33.78920        -0.25150
C         13.20390        35.97266        -0.11385
C         11.92898        35.26992        -0.55236
C         13.24316        37.31035         0.28965
C         12.00855        37.95673         0.79370
C         13.25682        40.16389         0.99604
C         11.99683        39.41381         1.14755
C         13.24656        41.53042         0.94072
C         11.98412        42.25731         0.95050
C         13.25634        44.37408         1.03459
C         12.05095        43.67961         0.84823
C         13.42730        45.69438         0.61746
C         15.78368        14.53034        -0.83108
C         15.76464        15.92289        -0.74758
C         14.60572        16.67051        -0.40648
C         15.83967        18.84080        -0.47231
C         14.60068        18.07659        -0.30072
C         15.85254        20.19833        -0.38669
C         14.67849        20.88341         0.26832
C         15.90137        23.11122         0.05743
C         14.65881        22.39215         0.16498
C         15.92233        24.51235         0.07374
C         14.72218        25.23050         0.56147
C         15.88561        27.45842         0.05731
C         14.64838        26.72958         0.50104
C         15.72432        28.85452        -0.39799
C         14.55544        29.53570        -0.16444
C         15.52192        31.71181        -1.17131
C         14.59340        31.05250        -0.12074
C         15.61301        33.19652        -0.85020
C         14.42150        33.86173        -0.55486
C         15.65217        35.99343        -0.35142
C         14.42268        35.27558        -0.34371
C         15.66763        37.39823        -0.05397
C         14.47000        38.03436         0.33614
C         15.68584        40.11002         0.88044
C         14.50178        39.42974         0.77249
C         15.70076        41.48317         1.53297
C         14.55621        42.31135         0.85110
C         15.69924        44.42585         1.86573
C         14.40824        43.60464         1.66341
C         15.72656        45.92997         1.64777
C         14.58043        46.49604         0.83216
C         15.50401        48.76314         0.43104
C         14.60868        47.69782         0.10652
C         16.06579        49.75200        -0.33523
C         18.26871        10.23410        -0.42983
C         18.24174        11.65071        -0.58179
C         17.03844        12.37813        -0.72574
C         18.23890        14.48510        -1.07015
C         17.01394        13.79277        -0.93164
C         18.26504        15.91469        -1.37414
C         16.97538        16.68056        -1.13624
C         18.29379        18.86685        -1.09387
C         17.13293        18.07153        -0.56594
C         18.28675        20.23581        -1.05026
C         16.99162        21.02797        -0.92970
C         18.33550        23.15120        -0.67205
C         17.19675        22.32753        -0.10510
C         18.30377        24.54775        -0.66426
C         17.10158        25.26047        -0.27980
C         18.26624        27.39413        -0.62538
C         17.09768        26.67706        -0.31438
C         18.23586        28.87668        -0.58486
C         16.93311        29.54514        -0.90999
C         18.13180        31.81278        -1.14446
C         16.88495        31.00788        -1.23639
C         18.09063        33.18052        -1.08208
C         16.83668        33.91608        -0.92422
C         18.06701        36.12152        -0.88899
C         16.84807        35.30769        -0.67946
C         18.09478        37.52912        -0.44561
C         16.91000        38.13276        -0.07636
C         18.20619        40.06799         0.88840
C         16.92302        39.61428         0.19396
C         18.17651        41.57333         1.13249
C         17.02372        42.23856         1.41646
C         18.32208        44.37958         2.19217
C         17.01261        43.64425         1.97422
C         18.30727        45.95141         2.37271
C         17.07011        46.62734         1.72165
C         18.28278        48.89122         1.83957
C         17.08918        47.98712         1.77876
C         18.21925        50.13032         0.95151
C         17.20022        50.57544         0.10070
C         18.27220        52.82804        -0.25417
C         17.27777        51.87971        -0.50959
C         18.26247        54.09613        -0.90841
C         20.75155         5.97601        -0.05839
C         20.71956         7.35916         0.03251
C         19.38169         8.05941         0.02714
C         20.69623        10.25311        -0.10998
C         19.45422         9.55358        -0.18535
C         20.69504        11.65845        -0.34940
C         19.49637        12.34085        -0.54795
C         20.73885        14.57661        -0.47138
C         19.46502        13.81392        -0.61561
C         20.82535        15.97463        -0.98825
C         19.57497        16.66280        -1.41305
C         20.79748        18.86003        -0.95211
C         19.56939        18.18621        -1.55435
C         20.75276        20.29817        -0.96066
C         19.53382        20.95863        -1.14408
C         20.79693        23.14838        -1.36162
C         19.44458        22.43321        -1.43655
C         20.77688        24.63823        -1.23021
C         19.48206        25.31975        -0.99211
C         20.74644        27.44742        -1.27437
C         19.47279        26.70853        -0.92495
C         20.74690        28.91345        -0.95678
C         19.49261        29.64041        -0.84251
C         20.73533        31.82760        -1.09044
C         19.43658        31.08590        -1.22726
C         20.65730        33.26485        -0.71113
C         19.34414        33.94395        -0.82246
C         20.64213        36.15630        -0.91044
C         19.37291        35.41072        -1.06954
C         20.58406        37.52897        -0.73573
C         19.36477        38.23782        -0.39059
C         20.70506        40.21316         0.24887
C         19.43635        39.53362         0.14312
C         20.78307        41.49559         1.01046
C         19.48269        42.19551         1.42128
C         20.82944        44.04837         2.12806
C         19.56159        43.61106         1.81408
C         20.86049        46.19831         2.21354
C         19.56755        46.73684         1.96529
C         20.75107        48.80752         1.36066
C         19.55072        48.09929         1.61216
C         20.76437        50.21203         1.16735
C         19.45619        50.94784         1.06940
C         20.77744        52.95432         0.18824
C         19.44762        52.35571         0.54660
C         20.91991        54.38318         0.25661
C         19.15518        55.15843        -0.60460
C         20.83149        56.96918        -1.12443
C         19.59632        56.24130        -1.36682
C         20.93834        58.26704        -1.64617
C         23.22418         3.16686         0.14287
C         22.02408         3.84061        -0.03535
C         23.15839         5.97748         0.40152
C         21.96935         5.25724         0.08057
C         23.11663         7.38903         0.51014
C         21.92249         8.08997         0.26697
C         23.12889        10.24242         0.38090
C         21.92726         9.55106         0.20597
C         23.10460        11.75493         0.36436
C         22.03252        12.34083        -0.55828
C         23.17730        14.58525        -0.26841
C         22.02669        13.85324        -0.40337
C         23.18168        16.05003        -0.23553
C         22.03404        16.74165        -0.59897
C         23.17321        18.90282        -0.24090
C         21.97497        18.17862        -0.62578
C         23.17304        20.33478        -0.39701
C         21.99553        21.03142        -0.76642
C         23.23895        23.15873        -0.77886
C         22.02023        22.43308        -0.93788
C         23.26749        24.61265        -0.74014
C         22.01559        25.35847        -0.82793
C         23.25831        27.51777        -0.67867
C         21.97769        26.72004        -0.77857
C         23.03986        28.84777         0.06972
C         22.01875        29.62160        -0.76598
C         23.08003        31.85895        -0.01871
C         22.02585        31.11118        -0.78295
C         23.05919        33.35716        -0.08479
C         21.91208        34.04904        -0.71633
C         23.16837        36.13295        -0.75023
C         21.89971        35.42548        -0.84331
C         23.15518        37.58324        -1.00540
C         21.82453        38.31360        -0.87790
C         23.16499        40.30533        -0.15552
C         21.84697        39.67097        -0.31648
C         23.22846        41.67605         0.42093
C         21.99465        42.33335         0.89523
C         23.22071        44.46368         1.36679
C         22.04812        43.59147         1.48920
C         23.21656        45.86348         1.44606
C         22.03525        46.65976         1.64104
C         23.27285        48.76591         1.56526
C         22.02993        48.05042         1.06993
C         23.25506        50.29499         1.45641
C         21.99571        50.87710         0.99283
C         23.33162        52.97769         0.47904
C         22.08842        52.19161         0.36601
C         23.34555        54.34367         0.14218
C         22.10358        55.05791        -0.06027
C         23.27847        57.10980        -0.62933
C         22.04033        56.40331        -0.55496
C         23.38943        58.37989        -1.29338
C         22.16363        58.97891        -1.73610
C         23.38322        60.85506        -2.69944
C         22.17753        60.24440        -2.38134
C         24.40723         3.86654         0.42919
C         25.61243         5.99779         0.76527
C         24.40208         5.26651         0.56225
C         25.62429         7.39038         0.89111
C         24.30747         8.11201         1.09130
C         25.57368        10.22759         0.77509
C         24.35920         9.56791         0.70792
C         25.67235        11.64876         0.37300
C         24.44100        12.38304         0.00600
C         25.65228        14.66054         0.39757
C         24.47482        13.88775        -0.12207
C         25.52904        16.11639         0.60366
C         24.36843        16.78103         0.20815
C         25.43856        19.01899         0.83471
C         24.30577        18.22088         0.22152
C         25.56081        20.37658         0.18903
C         24.41579        21.04785        -0.27215
C         25.71674        23.17731        -0.59854
C         24.43329        22.45706        -0.53604
C         25.73389        24.64229        -0.54812
C         24.46510        25.30138        -0.55238
C         25.66218        27.51865        -0.25214
C         24.39347        26.71592        -0.02634
C         25.68536        28.88301         0.42187
C         24.34458        29.63658         0.35569
C         25.66898        31.86449         0.16540
C         24.37147        31.13722         0.30447
C         25.65600        33.34291         0.26400
C         24.32977        34.11526         0.14699
C         25.58810        36.28161        -0.20309
C         24.32718        35.52221        -0.31166
C         25.63829        37.63487        -0.74833
C         24.42629        38.33347        -0.87094
C         25.63020        40.50721        -0.78923
C         24.37446        39.73186        -0.77853
C         25.71010        41.81858        -0.13954
C         24.43613        42.50470         0.17030
C         25.77762        44.45487         1.14574
C         24.44200        43.87781         0.72922
C         25.76446        45.93904         0.88177
C         24.44793        46.63659         1.05176
C         25.75348        48.77867         1.33983
C         24.53302        48.07784         1.36277
C         25.75469        50.22589         1.31879
C         24.54627        50.96269         1.23055
C         25.77711        53.07790         0.85337
C         24.54364        52.34016         0.85896
C         25.85214        54.44968         0.39729
C         24.57480        55.09060         0.16313
C         26.21216        57.27604        -0.80351
C         24.41790        56.48002        -0.03904
C         25.90506        58.28855        -1.71221
C         24.63529        58.96737        -1.73483
C         24.58619        60.19545        -2.43763
C         26.82611         8.11640         0.96247
C         28.05021        10.26062         0.98739
C         26.84327         9.53845         0.96163
C         28.11496        11.69176         1.01965
C         26.81496        12.41244         0.96534
C         28.00847        14.65497         1.38521
C         26.74378        13.90216         1.10090
C         28.01452        16.10569         1.16591
C         26.68104        16.82569         1.28963
C         27.96299        18.95064         1.08118
C         26.77030        18.28735         0.93718
C         27.96781        20.43635         1.06866
C         26.77120        21.14054         0.51483
C         28.17532        23.27019         0.19754
C         26.97720        22.47421        -0.11034
C         28.17376        24.63406        -0.12962
C         26.95492        25.32667        -0.42513
C         28.21305        27.60435        -0.28269
C         26.95282        26.81473        -0.49318
C         28.11187        29.04583         0.04931
C         26.91463        29.71399         0.07845
C         28.13489        31.90253        -0.00412
C         26.88168        31.17711         0.09549
C         28.11127        33.32448        -0.07450
C         26.92149        34.05709         0.00443
C         28.16255        36.27207        -0.35097
C         26.92308        35.52775        -0.00062
C         28.18379        37.59971        -0.69003
C         26.92934        38.26408        -1.20605
C         28.20411        40.46825        -0.72512
C         26.93630        39.77793        -1.03990
C         28.16930        41.81680        -0.40346
C         26.93523        42.48224        -0.02321
C         28.21212        44.50569         0.69146
C         26.99889        43.80625         0.53546
C         28.20438        45.90169         1.08827
C         27.03900        46.65352         1.09983
C         28.23701        48.81969         1.17564
C         27.02113        48.09473         1.23335
C         28.27000        50.23628         1.19356
C         27.00502        50.93548         1.28817
C         28.69892        53.20451         0.52958
C         26.90723        52.34964         1.30134
C         28.29144        54.21109        -0.32278
C         27.08866        55.00590        -0.16069
C         27.13039        56.21232        -0.91047
C         29.29678        12.40576         1.02687
C         30.51036        14.66393         0.92949
C         29.34810        13.86179         1.26272
C         30.48500        16.06097         1.00802
C         29.21855        16.78581         1.12798
C         30.46213        18.91317         1.12395
C         29.24551        18.24062         1.12956
C         30.53713        20.38361         1.25900
C         29.26150        21.18673         1.15838
C         30.58286        23.22329         0.75313
C         29.34760        22.59229         0.70065
C         30.69626        24.63015         0.31941
C         29.46624        25.36336        -0.13023
C         30.67204        27.53989         0.51317
C         29.50204        26.86596        -0.08061
C         30.60724        28.98943         0.78777
C         29.35101        29.75589         0.46324
C         30.62581        31.85309         0.20975
C         29.40260        31.21794         0.20712
C         30.69163        33.29061        -0.27280
C         29.40542        34.05455         0.03269
C         30.66770        36.24137        -0.52451
C         29.42413        35.55449        -0.12563
C         30.68085        37.58567        -0.79899
C         29.43870        38.34047        -0.81546
C         30.65177        40.51540        -1.38188
C         29.44461        39.73322        -0.86958
C         30.70466        41.97860        -0.88060
C         29.41470        42.61708        -0.40804
C         30.69927        44.53220         0.50886
C         29.45362        43.88274         0.33780
C         30.74016        45.87171         0.95750
C         29.49530        46.61319         1.39626
C         30.77786        48.73663         1.08243
C         29.47913        48.02118         0.79834
C         30.76198        50.12279         0.97960
C         29.55568        50.89605         0.89949
C         29.69783        52.19902         0.38394
C         31.69433        16.80009         0.89968
C         32.94862        18.91676         0.95678
C         31.72317        18.20600         0.99347
C         33.02672        20.34327         0.97995
C         31.80718        21.08217         1.02878
C         33.05515        23.18266         1.01971
C         31.81632        22.49260         0.97875
C         33.04536        24.64686         1.15490
C         31.86411        25.40542         0.76536
C         33.13867        27.53354         0.75497
C         31.86915        26.81608         0.74231
C         33.14380        28.95319         0.55681
C         31.93011        29.70193         1.10541
C         33.17336        31.89032         0.40060
C         31.85667        31.28131         0.90600
C         33.19229        33.30727        -0.07264
C         31.93154        34.11066         0.19425
C         33.17446        36.08117        -0.97204
C         31.90059        35.42274        -0.58545
C         33.22502        37.56973        -1.34295
C         32.00520        38.33129        -0.74391
C         33.29088        40.49535        -1.07322
C         31.98493        39.77301        -1.24802
C         33.30006        42.02612        -0.93660
C         31.97432        42.59623        -0.43097
C         33.18984        44.49790         0.55798
C         31.94517        43.84009         0.18174
C         33.19168        45.81896         0.95162
C         31.96927        46.57183         1.05182
C         31.96493        47.98316         1.20089
C         34.25229        21.05329         0.94931
C         35.53284        23.19312         0.93430
C         34.29154        22.47112         1.00407
C         35.61021        24.59590         0.89256
C         34.38563        25.39287         1.12292
C         35.58469        27.46783         0.49445
C         34.35584        26.81729         0.74817
C         35.58395        28.86452         0.21378
C         34.34337        29.58679         0.24979
C         35.54395        31.66067        -0.63063
C         34.38544        31.06408         0.12253
C         35.55445        33.15923        -0.97816
C         34.34793        33.91425        -0.44432
C         35.65930        36.08218        -0.91777
C         34.40798        35.42542        -0.38521
C         35.68900        37.55003        -0.72416
C         34.49285        38.28065        -0.86002
C         35.73589        40.33961        -0.44330
C         34.51150        39.68919        -0.72402
C         35.81089        41.85454        -0.40509
C         34.48757        42.53151        -0.14947
C         34.42245        43.73048         0.47825
C         36.80657        25.31131         0.67491
C         38.03805        27.44510         0.41727
C         36.83032        26.73144         0.53765
C         38.05530        28.84933         0.19722
C         36.82181        29.54202         0.05266
C         38.09200        31.69593        -0.36354
C         36.84263        30.93050        -0.43751
C         38.06780        33.12852        -0.44975
C         36.88335        33.83628        -0.66365
C         38.17870        36.03810        -0.53876
C         36.94702        35.29320        -0.87172
C         38.14436        37.41670        -0.39522
C         36.93031        38.19576        -0.49396
C         36.91959        39.60152        -0.33525
C         39.27337        29.59216         0.11154
C         40.52210        31.74210         0.01078
C         39.28926        30.98853        -0.08290
C         40.53091        33.10155        -0.08260
C         39.32267        33.86400        -0.29276
C         39.35541        35.25097        -0.31280
O         26.26772        40.46174        -2.14819
O         36.05586        30.90882        -1.75574
O         27.99412        53.09056         1.75210
O         19.86971        33.56292         0.50425
O         30.39889        24.82327        -1.12962
O         27.00817        21.09430         1.99006
O         24.20672        30.41565         1.59050
O         32.81532        40.07920        -2.40726
O         17.40320        16.38707        -2.47974
O         26.23471        36.16950         1.12088
O         20.25999        41.35234         2.37787
O         18.62832        35.85861        -2.24350
O         25.44675        57.30877         0.39142
O         16.89204        29.99451        -2.31492
O         22.57500        32.61385         1.10755
O         15.42797        45.34925         2.96731
O         20.94472        45.08717         3.04855
O         26.16271        27.41022        -1.60595
O         25.00233        46.32495        -0.28763
O         20.98515        24.00348        -2.55306
O         24.23874        43.67400        -0.71222
O         32.45526        35.28484        -1.93659
O         19.80659        55.08711         0.67113
O         28.72492        14.22949         2.55524
O         15.53657        27.34182         1.49015
O         29.86887        20.93403         2.46365
O         23.13311        49.58180         2.74232
O         25.26407        11.78076        -1.04617
O         19.30848        52.12002         1.97244
O         22.44306        38.06746        -2.19422
O         20.21333        31.48026        -2.40533
O         29.63028        29.34326         1.85887
O         12.09766        38.37614         2.19989
O         21.43854        52.32541        -0.95691
O         17.61505        43.73045         3.30502
O         25.52726        14.32284        -1.03971
O         19.90341        14.42881         0.71971
O         29.47238        34.90311         1.20998
O         23.52960        40.53524         1.31358
O         22.58550        30.37402        -1.91231
O         26.65318        22.52681        -1.53116
O         20.47951        16.06873        -2.41896
O         14.25929        24.72395         1.85734
O         29.93874        42.83904        -1.79604
O         34.22661        31.72042         1.43485
O         36.26266        35.65779        -2.14853
O         15.89551        48.70275         1.77945
O         11.32579        24.82098         1.86056
O         29.15686        27.44701        -1.40899
O         10.41842        37.17298        -0.94454
O         24.91962        33.86593         1.44664
O         33.71310        25.11700         2.38249
O         26.33217        13.04844         2.21074
O         18.91337        29.46635         0.56996
O         15.38059        41.37917         2.87539
O         22.78755        12.20090         1.70668
H         23.34429        11.70716         2.34527
O         17.61169        21.87108         1.22056
H         17.52917        22.62436         1.84293
O         30.39925        40.56857        -2.80692
H         29.84305        41.36886        -2.96656
O         25.87951        28.55000         1.83360
H         25.62920        29.35671         2.34691
O         24.14686        26.54922         1.38251
H         24.60537        27.27263         1.87867
O         11.95414        35.35556        -2.00972
H         11.53531        36.21547        -2.24552
O         26.34925        16.79911         2.72074
H         25.71752        17.54583         2.87916
O         25.88195        44.29786         2.59129
H         25.87303        43.34151         2.80610
O         18.16561        46.19228         3.78672
H         17.59321        45.46828         4.14014
O         31.70447        31.83819         2.25054
H         31.00575        31.31216         2.70370
O         22.19765        47.98688        -0.37912
H         21.61271        47.28660        -0.73460
O         36.27416        42.32153        -1.69036
H         35.48023        42.41585        -2.26860
O         24.07978         8.10710         2.54911
H         24.07062         7.16999         2.83921
O         29.57764        46.77440         2.84162
H         29.49386        45.89031         3.25519
O         14.87842        20.62559         1.70758
H         14.19588        21.13447         2.19588
O         25.03488        19.24253         2.24754
H         25.65034        19.94222         2.58957
O         19.65818        18.47355        -2.98018
H         20.19342        17.75006        -3.38079
O         32.26265        38.48115         0.68686
H         32.33060        37.58946         1.09272
O         30.81893        33.21250        -1.71611
H         30.11279        32.62950        -2.06420
O         14.89368        31.60807        -2.46099
H         15.36521        30.90198        -2.96209
O         18.37859        49.38366         3.20844
H         18.39527        48.59717         3.79844
O         15.18688        31.37612         1.16960
H         14.70569        30.88366         1.86756
O         23.60217        27.85910        -2.04251
H         24.33143        27.27822        -2.35756
O         35.38304        33.24437        -2.41617
H         35.86352        32.47947        -2.81044
O         22.38910        12.04180        -1.93167
H         23.34660        12.22116        -2.06205
O         20.84979        27.42813        -2.74457
H         21.74809        27.77573        -2.96443
O         18.24985        39.43618         2.18433
H         18.94645        39.89786         2.70946
O         17.49747        17.79975         0.83840
H         17.37441        18.62967         1.34984
O         13.98754        43.16936         2.96447
H         14.53074        43.61582         3.64965
O         33.20833        37.56515        -2.77126
H         33.23936        38.49702        -3.09101
O         31.92427        34.44923         1.59185
H         31.83207        33.60393         2.10735
O         14.92151        42.61084        -0.49563
H         15.29284        41.79946        -0.91367
O          9.59703        37.59420         2.64522
H         10.47264        37.94576         2.94563
O         18.49297         7.46161        -0.92627
H         18.85417         7.62016        -1.82233
O         18.99735        22.49831        -2.83442
H         19.52549        23.22473        -3.25705
O         32.10515        29.48681         2.53002
H         32.92633        29.95275         2.80052
O         26.95255        37.99323        -2.64558
H         26.52619        38.76886        -3.08330
O         22.41869        28.55512         1.32504
H         22.57576        29.31900         1.92630
O         16.88788        40.29666        -1.12035
H         16.66589        39.63278        -1.80796
O         33.48101        42.56033        -2.28362
H         32.95624        41.98016        -2.88623
O         16.56701        21.40450        -2.25954
H         17.35491        21.77311        -2.73633
O         34.40930        35.77007         1.03750
H         33.64950        35.30140         1.47046
O         29.41425        47.84975        -0.64466
H         29.43793        48.73701        -1.05970
H          4.90479        30.98781         0.30295
H          4.84036        33.45673         0.37688
H          7.47303        26.78698         0.09321
H          6.19631        28.88249         0.20794
H          6.02802        35.61787         0.52220
H          7.25443        37.71282         1.00154
H         10.02865        22.47872        -0.03915
H          8.72707        24.69948        -0.11086
H          8.55605        39.97179         1.03765
H          9.82588        42.13389         0.90877
H         12.43342        18.24950        -0.28177
H         11.22871        20.40779        -0.23185
H         11.13296        44.24446         0.62377
H         12.61221        46.14857         0.03174
H         14.86137        13.96810        -0.62049
H         13.65870        16.12884        -0.25865
H         13.85778        47.84040        -0.68653
H         15.69532        49.92130        -1.35730
H         17.32891         9.66593        -0.49012
H         16.08116        11.84012        -0.66064
H         16.43669        52.17507        -1.15540
H         17.55125        54.23904        -1.73641
H         19.81522         5.42728        -0.23696
H         18.91343         7.88075         1.03715
H         19.00108        56.55875        -2.23649
H         20.04032        58.73997        -2.07231
H         23.25497         2.07233         0.04878
H         21.10466         3.28476        -0.26801
H         23.39276        61.82666        -3.21213
H         21.22382        60.70982        -2.66822
H         25.35305         3.31777         0.54342
H         26.56740         5.44980         0.75234
H         26.62982        58.54297        -2.50040
H         25.53155        60.64471        -2.77446
H         27.78289         7.57193         0.94396
H         28.99476         9.69905         1.04920
H         28.93216        54.45277        -1.18422
H         27.95074        56.32300        -1.63618
H         30.25409        11.86781         0.94661
H         31.43644        14.15758         0.61806
H         31.71772        50.67014         0.96907
H         30.63269        52.44279        -0.14446
H         32.64152        16.25073         0.79233
H         33.88343        18.33989         0.89032
H         34.14564        46.32321         1.16708
H         32.92506        48.51253         1.30292
H         35.19714        20.49154         0.90999
H         36.46105        22.61231         0.82481
H         36.56592        42.17467         0.35963
H         35.32692        44.15943         0.93784
H         37.75583        24.75902         0.60595
H         38.99318        26.90331         0.48095
H         39.07647        37.94697        -0.14647
H         37.86704        40.13311        -0.16162
H         40.22622        29.06551         0.26825
H         41.45837        31.19208         0.18408
H         41.47851        33.65257         0.01052
H         40.31278        35.76718        -0.14323
