         430
 CSIRO Nanostructure Databank - Neutral Graphene Oxide Data Set
C         27.88731        27.37960        -0.98800
C         27.87498        28.79914        -1.03250
C         26.65682        29.53601        -1.06377
C         27.89023        31.64890        -1.05550
C         26.66796        30.91044        -1.07566
C         27.89618        33.09749        -0.97265
C         26.68922        33.83938        -0.92318
C         27.90319        35.93526        -0.62920
C         26.69247        35.20949        -0.75755
C         27.91376        37.36190        -0.39808
C         26.70782        38.09498        -0.26862
C         27.93613        40.16645         0.11404
C         26.71906        39.45005        -0.01854
C         27.94756        41.58169         0.38815
C         26.73623        42.30924         0.56379
C         27.97535        44.36667         0.92176
C         26.74645        43.65820         0.82757
C         27.98906        45.75941         1.19502
C         30.33094        27.35113        -0.95717
C         29.07460        26.68089        -0.93334
C         30.32514        28.75894        -1.05009
C         29.11180        29.50268        -1.05086
C         30.36065        31.67010        -1.03317
C         29.11577        30.94286        -1.06609
C         30.37234        33.09387        -0.95121
C         29.12614        33.80732        -0.89581
C         30.37526        35.93781        -0.63102
C         29.13159        35.22647        -0.72118
C         30.38855        37.34358        -0.41338
C         29.14969        38.05616        -0.27855
C         30.41563        40.16000         0.08505
C         29.16425        39.46201        -0.02791
C         30.42871        41.55983         0.33132
C         29.19016        42.26679         0.48776
C         30.44548        44.38096         0.83077
C         29.20430        43.67077         0.74559
C         30.42628        45.78281         1.08875
C         29.18294        46.44207         1.27526
C         32.80139        24.51703        -0.43286
C         31.61589        25.19677        -0.65181
C         32.82117        27.28778        -0.72470
C         31.58919        26.60740        -0.80548
C         32.86923        28.73293        -0.98121
C         31.58884        29.50016        -1.18595
C         32.80324        31.66067        -0.85503
C         31.59123        30.96980        -1.01390
C         32.83775        33.08052        -0.83714
C         31.60683        33.79831        -0.90818
C         32.82768        35.94829        -0.77619
C         31.60877        35.23754        -0.78251
C         32.85682        37.33673        -0.51675
C         31.62823        38.04228        -0.31352
C         32.88926        40.14832         0.05044
C         31.64588        39.44885        -0.05519
C         32.88914        41.54888         0.24830
C         31.67565        42.26401         0.40861
C         32.91929        44.39678         0.79507
C         31.68124        43.68342         0.65960
C         32.90845        45.81339         1.02881
C         31.67166        46.51641         1.14266
C         32.89165        48.62537         1.24363
C         31.69200        47.91936         1.26995
C         35.32804        23.09713         0.07115
C         35.29307        24.49531        -0.09712
C         34.04243        25.19236        -0.32988
C         35.28970        27.33438        -0.40962
C         34.04652        26.60737        -0.47087
C         35.26991        28.77396        -0.46994
C         34.08793        29.46132        -0.60777
C         35.27527        31.70069        -0.14394
C         34.02148        30.92796        -0.45737
C         35.30786        33.12394        -0.56109
C         34.10043        33.77893        -0.80364
C         35.34818        35.96205        -0.88893
C         34.07595        35.23238        -1.22201
C         35.35893        37.30208        -0.56027
C         34.11052        38.03682        -0.39861
C         35.38826        40.05943         0.17518
C         34.13219        39.40156        -0.07053
C         35.31059        41.41865         0.83605
C         34.21109        42.28478         0.18781
C         35.36674        44.41082         0.93028
C         34.16123        43.71048         0.71855
C         35.38391        45.82824         1.01468
C         34.13750        46.54241         1.06225
C         35.37148        48.77486         0.94544
C         34.11621        47.96168         1.14353
C         35.47765        50.02224         1.79356
C         37.73962        23.13167         0.38653
C         36.53033        22.43513         0.30484
C         37.75089        24.54695         0.25977
C         36.51672        25.22999        -0.01342
C         37.75425        27.38228        -0.08156
C         36.51166        26.64985        -0.18358
C         37.78665        28.77603        -0.27139
C         36.55171        29.55303        -0.63943
C         37.82077        31.65127        -0.37991
C         36.57678        30.91797         0.07832
C         37.78697        33.06526        -0.63521
C         36.58272        33.76754        -0.72481
C         37.85930        35.91531        -0.74819
C         36.61351        35.20918        -1.20455
C         37.83291        37.30764        -0.46456
C         36.62336        38.00586        -0.36559
C         37.87006        40.14117         0.07803
C         36.60424        39.40174         0.01477
C         37.88267        41.50888         0.33921
C         36.65415        42.15902         0.87266
C         37.93295        44.38304         0.85613
C         36.64120        43.64501         1.02348
C         37.91778        45.87347         0.92116
C         36.61832        46.58230         1.00899
C         37.88175        48.70709         1.04267
C         36.63613        47.96403         1.04325
C         37.89866        50.07012         1.40653
C         36.66582        50.65115         1.92310
C         40.33218        20.41507         0.00797
C         39.13524        21.03497         0.04455
C         40.25266        23.18849         0.62921
C         38.99188        22.36977         0.74217
C         40.21863        24.59226         0.65615
C         38.96752        25.29018         0.43192
C         40.17891        27.45701         0.39343
C         38.97183        26.70547         0.26408
C         40.21672        28.82284         0.07533
C         38.99352        29.49479        -0.23231
C         40.27323        31.53164        -0.94605
C         38.98618        30.92199        -0.47148
C         40.23983        33.03908        -0.96593
C         39.06794        33.74996        -0.84450
C         40.30710        35.92597        -0.80420
C         39.06072        35.20458        -0.77712
C         40.34828        37.28824        -0.57997
C         39.12217        37.96656        -0.02663
C         40.28907        40.16692        -0.41758
C         39.10922        39.46308        -0.21336
C         40.28504        41.62221        -0.37545
C         39.06551        42.29528         0.06237
C         40.16866        44.50374        -0.27028
C         39.05796        43.68221         0.20891
C         40.22042        45.95076         0.01699
C         39.09818        46.62731         0.43293
C         40.28249        48.78506         0.53646
C         39.09262        48.05370         0.64563
C         40.32791        50.14315         0.94821
C         39.13081        50.80838         1.36538
C         40.41473        52.87785         1.58700
C         39.21403        52.19247         1.67904
C         42.75419        20.41834         0.59898
C         41.54105        21.08650         0.46307
C         42.69657        23.21623         0.94776
C         41.49337        22.50059         0.68656
C         42.65263        24.64914         1.02414
C         41.43933        25.31913         0.83675
C         42.67080        27.52320         0.80624
C         41.36804        26.81000         1.05370
C         42.66183        28.92486         0.52570
C         41.45497        29.58455         0.13686
C         42.67403        31.70534        -0.08994
C         41.48790        30.95828        -0.21284
C         42.63872        33.21472        -0.24240
C         41.57250        33.68770        -1.26594
C         42.81001        35.95745        -1.28928
C         41.50798        35.21291        -1.28558
C         42.80857        37.37894        -0.89340
C         41.57545        38.04058        -0.68507
C         42.76470        40.17866        -0.71508
C         41.55097        39.46291        -0.60550
C         42.69372        41.64018        -1.10349
C         41.45644        42.33026        -0.59670
C         42.74856        44.53441        -0.51018
C         41.46931        43.79477        -0.66218
C         42.75245        45.91970        -0.34825
C         41.46288        46.66648        -0.33586
C         42.78480        48.81407         0.22663
C         41.48932        48.15872        -0.02807
C         42.80756        50.11227         0.69842
C         41.58043        50.83057         0.95742
C         42.87724        52.92205         1.11257
C         41.61495        52.21111         1.24753
C         43.90860        21.11243         1.00575
C         45.09147        23.24269         1.74091
C         43.90295        22.49597         1.16783
C         45.11195        24.71309         1.36724
C         43.90117        25.38896         1.16822
C         45.12101        27.52810         1.07655
C         43.88994        26.82066         1.00609
C         45.08312        28.99859         1.05291
C         43.86648        29.67890         0.58966
C         45.15448        31.78781         0.26575
C         43.88930        31.06429         0.30429
C         45.16555        33.16639        -0.19168
C         43.99428        33.82411        -0.52244
C         45.29431        35.96128        -0.82382
C         44.10098        35.14926        -1.26168
C         45.29010        37.36307        -0.81672
C         44.02983        38.08978        -0.79987
C         45.26431        40.29136        -0.43661
C         43.99842        39.50104        -0.69875
C         45.23793        41.64425        -1.16052
C         43.97078        42.41315        -0.85692
C         45.26327        44.47210        -0.38493
C         43.97573        43.75957        -0.59792
C         45.26350        45.95546        -0.18251
C         43.97215        46.68191        -0.21870
C         45.26299        48.78331         0.04606
C         43.99826        48.06146         0.00196
C         45.31638        50.10237         0.47655
C         44.10920        50.76106         1.11241
C         44.04522        52.26380         0.97045
C         47.56283        23.26090         1.39817
C         46.41195        22.56903         1.48880
C         47.60140        24.71457         1.40726
C         46.35077        25.42212         1.35408
C         47.60673        27.56378         1.19618
C         46.35056        26.84785         1.22684
C         47.64517        28.96549         0.95637
C         46.39455        29.75015         0.97609
C         47.63214        31.78902         0.25593
C         46.37846        31.13056         0.45767
C         47.67104        33.14819        -0.05199
C         46.44676        33.85411        -0.31512
C         47.79988        35.89726        -0.86319
C         46.48624        35.22341        -0.60537
C         47.75543        37.39702        -0.71261
C         46.53762        38.08734        -0.75654
C         47.70998        40.23520        -0.97224
C         46.54158        39.53898        -0.75962
C         47.73111        41.68797        -0.99317
C         46.52098        42.40657        -0.93688
C         47.72810        44.53564        -0.87620
C         46.52539        43.80723        -0.79303
C         47.75130        45.99083        -0.72195
C         46.51373        46.71853        -0.41670
C         47.71979        48.91134        -0.66401
C         46.48744        48.08814        -0.33397
C         47.73250        50.21969         0.08870
C         46.59919        50.76837         0.57611
C         50.09832        24.72341         1.43560
C         48.81967        25.41099         1.40615
C         50.06710        27.55679         1.29634
C         48.83456        26.85041         1.31591
C         50.08107        28.93004         0.99625
C         48.86482        29.62057         0.77209
C         50.13780        31.80436         0.65835
C         48.92610        31.01169         0.19627
C         50.11651        33.18327         0.55113
C         48.93002        33.88920         0.07063
C         50.11782        36.10270         0.27400
C         48.96085        35.24247        -0.17474
C         50.18308        37.46034        -0.37847
C         48.99541        38.09844        -0.72744
C         50.23959        40.26901        -0.93588
C         48.99469        39.49817        -1.28335
C         50.21828        41.68260        -0.96761
C         48.96422        42.39528        -1.00597
C         50.20070        44.52500        -1.06536
C         48.96176        43.81974        -1.01344
C         50.16805        45.99467        -1.37153
C         48.93158        46.68090        -0.84518
C         50.22579        48.82831        -0.99524
C         49.01899        48.13276        -0.42191
C         51.27502        25.37818         1.51779
C         52.58185        27.52602         1.11025
C         51.35168        26.86839         1.70840
C         52.57813        28.91737         0.94163
C         51.33531        29.67233         0.97238
C         52.67630        31.74404         1.21412
C         51.34898        31.05943         0.91072
C         52.67020        33.24487         0.94322
C         51.36604        33.96894         0.73370
C         52.62467        36.02501         0.12111
C         51.42065        35.35768         0.24278
C         52.64139        37.45322        -0.16533
C         51.43556        38.14455        -0.41622
C         52.65279        40.30817        -0.59644
C         51.44491        39.58103        -0.68118
C         52.66729        41.70390        -0.78048
C         51.43933        42.40917        -0.90456
C         52.66912        44.57198        -0.93247
C         51.42697        43.84535        -0.98565
C         52.66841        46.00906        -0.95924
C         51.45678        46.72207        -1.07676
C         51.39358        48.15520        -1.17417
C         54.90874        27.42787         0.38459
C         53.76553        26.79730         0.83935
C         54.95243        28.84192         0.26626
C         53.78861        29.59787         0.58370
C         55.02636        31.68460         0.24374
C         53.84254        31.01846         0.58224
C         55.07749        33.15250         0.22970
C         53.90051        33.90798         0.45343
C         55.10654        35.98865        -0.05575
C         53.88516        35.30219         0.19964
C         55.10270        37.43468        -0.17774
C         53.89912        38.13109        -0.22363
C         55.12579        40.22497        -0.95540
C         53.94057        39.64323        -0.17917
C         55.15709        41.74021        -0.79479
C         53.92505        42.43171        -0.78959
C         55.13676        44.57648        -0.78017
C         53.90159        43.85958        -0.82883
C         55.11082        46.01018        -0.76268
C         53.92998        46.69381        -0.83138
C         56.13265        29.53403        -0.12028
C         56.16040        30.91012        -0.14439
C         56.26817        33.84702        -0.06939
C         56.29261        35.23181        -0.15846
C         56.35220        38.18497        -0.24326
C         56.39110        39.49382        -0.56931
C         56.35736        42.47141        -0.79146
C         56.35048        43.86360        -0.75111
O         45.68223        29.62034         2.25907
O         52.00835        33.91814         2.08136
O         34.34700        31.39388         0.94527
O         36.80180        42.76663         2.20909
O         41.32289        47.65970        -1.40453
O         32.39727        29.08312        -2.35203
O         38.28499        45.08059         2.11704
O         40.54348        44.29401        -1.68405
O         42.03359        35.76247        -2.53799
O         45.36190        45.03547         0.97981
O         44.25422        50.51432         2.55856
H         44.37365        49.54854         2.68203
O         40.43680        31.06622        -2.32794
H         41.18171        31.59170        -2.71063
O         35.29812        49.24721        -0.45138
H         36.12444        49.74568        -0.62986
O         38.85475        22.05271         2.17633
H         39.68717        21.61549         2.45679
O         48.03102        35.68457        -2.31876
H         47.14961        35.66807        -2.75343
O         47.66774        49.22503        -2.08394
H         46.82711        49.69768        -2.25729
O         36.61856        29.86043        -2.06354
H         36.70275        29.01843        -2.55759
O         45.28094        40.58979         0.98515
H         45.34225        39.74403         1.47590
O         49.03115        39.35491        -2.75133
H         48.32820        38.71591        -2.99733
O         36.73142        30.69479         1.49247
H         35.82994        30.74356         1.89035
O         33.99214        35.20360        -2.71126
H         33.81687        36.12290        -3.00767
O         44.43315        34.77882        -2.64060
H         43.65373        34.27473        -2.97896
O         54.15947        40.00273         1.21838
H         53.42253        39.62905         1.74548
O         42.52079        41.60489        -2.56514
H         43.36768        41.24922        -2.93247
O         51.48049        27.07950         3.15991
H         50.66713        26.72797         3.57979
O         42.18049        33.76950         1.03164
H         42.74994        33.40775         1.74332
O         52.89413        31.57827         2.64792
H         52.42517        32.32540         3.08690
O         41.11546        26.97333         2.50937
H         41.86681        26.55539         2.98252
O         39.19228        37.75803         1.43453
H         38.40127        38.18448         1.82911
O         49.86812        36.38494         1.70488
H         50.18627        35.61135         2.22008
O         42.02782        33.23886        -2.57539
H         41.58427        33.81132        -3.24161
O         34.58522        42.40626        -1.22008
H         33.87727        42.90402        -1.68061
O         54.88458        39.96244        -2.36542
H         55.62736        40.34319        -2.87792
O         44.88801        23.20335         3.20021
H         45.63616        23.68716         3.61017
O         45.21501        41.31860        -2.59290
H         45.47294        42.12286        -3.09147
O         49.16024        30.78622        -1.24535
H         49.14871        31.66402        -1.68438
O         50.03311        46.06693        -2.85356
H         50.81929        45.62082        -3.23533
O         49.21033        48.11440         1.02852
H         50.03774        47.62319         1.21644
O         36.71376        35.14863        -2.67068
H         35.80695        34.93238        -3.00590
O         34.89617        41.14089         2.19117
H         35.41278        41.75005         2.77460
H         26.93027        26.83814        -0.98163
H         25.70202        28.99068        -1.06663
H         25.70755        31.44215        -1.08731
H         25.72156        33.32773        -1.00488
H         25.72760        35.73125        -0.71659
H         25.73878        37.58786        -0.36023
H         25.75736        39.96982         0.07724
H         25.76950        41.79421         0.49555
H         25.80239        44.20427         0.96641
H         27.03612        46.28742         1.34196
H         29.03838        25.58489        -0.87729
H         29.15829        47.51744         1.49334
H         32.76122        23.42394        -0.33526
H         30.68630        24.61560        -0.71328
H         32.86465        49.72310         1.27894
H         30.75577        48.48690         1.34378
H         34.40282        22.50791         0.03012
H         34.56736        50.47669         2.21104
H         36.51655        21.34666         0.45305
H         36.71951        51.60346         2.47042
H         40.42749        19.39884        -0.40403
H         38.23662        20.51618        -0.31980
H         40.44491        53.95538         1.80470
H         38.30906        52.74076         1.97466
H         42.80541        19.33441         0.42247
H         42.85232        54.02250         1.10034
H         44.82329        20.53143         1.18295
H         44.98038        52.83146         0.86129
H         48.50260        22.70322         1.28768
H         46.45539        21.47104         1.49450
H         48.68729        50.75658         0.18735
H         46.64661        51.73791         1.09223
H         50.11517        23.62612         1.38538
H         50.20168        49.92113        -1.11368
H         52.20114        24.78971         1.58115
H         52.30512        48.72098        -1.42201
H         55.80848        26.84003         0.15221
H         53.78417        25.70712         0.97023
H         56.06329        46.55546        -0.69182
H         53.94408        47.79183        -0.80961
H         57.03100        28.95846        -0.38639
H         57.08889        31.41272        -0.44571
H         57.20858        33.29857        -0.20922
H         57.25039        35.72909        -0.36071
H         57.29384        37.66105        -0.02455
H         57.36553        39.99844        -0.64790
H         57.32450        41.94976        -0.80201
H         57.30058        44.41595        -0.71756
