         290
 CSIRO Nanostructure Databank - Neutral Graphene Oxide Data Set
C          1.92594         1.75612         1.52065
C          1.85820         3.19380         1.37970
C          2.77888         0.83513         1.00382
C          2.70947         4.02855         0.73797
C          1.92030         6.14654        -0.43004
C          1.91173         7.48557        -0.59168
C          2.51353         5.55653         0.84301
C          2.50983         8.39085         0.38496
C          1.00330        10.46548        -0.08622
C          1.14824        11.79689        -0.28463
C          2.03290         9.65778         0.56679
C          2.44321        12.57842        -0.44719
C          1.19518        14.79728         0.15105
C          1.21450        16.18298         0.29795
C          2.37843        14.09067        -0.22066
C          2.34963        16.94942        -0.02172
C          2.39476        18.35328         0.16657
C          3.89588         0.96141         0.04991
C          4.01345         3.68504         0.07580
C          4.62878         2.26552        -0.26599
C          5.04767         4.29830         1.05447
C          3.79908         6.37435         1.12474
C          3.57014         7.86424         1.37617
C          5.01090         5.78489         1.16174
C          4.92818         8.65650         1.44745
C          3.84525        10.87560         0.97650
C          3.73922        12.08402         0.19668
C          4.98454        10.10626         1.04093
C          4.88686        12.71573        -0.22079
C          3.54327        14.79739        -0.46837
C          3.51441        16.28464        -0.70345
C          4.79503        14.07727        -0.80676
C          4.85240        16.97641        -0.50898
C          3.56525        19.06639         0.01593
C          4.83520        18.42154        -0.21651
C          6.06751         2.26434         0.39202
C          6.34985         3.76280         0.51284
C          7.26153         1.61633        -0.24381
C          7.59831         4.16891         1.28781
C          6.30528         6.38441         1.71747
C          6.24745         7.91348         1.58373
C          7.60716         5.69402         1.25850
C          7.54970         8.61643         1.26102
C          6.25539        10.82393         0.83306
C          6.20309        12.20855         0.19940
C          7.54080        10.06555         0.88071
C          7.38112        12.60668        -0.67099
C          6.04905        14.86160        -1.07564
C          6.02127        16.33845        -0.81154
C          7.41285        14.14011        -1.13584
C          7.27675        17.18897        -1.03278
C          6.00562        19.12507        -0.07307
C          7.32098        18.39887        -0.06705
C          8.52054         2.20390        -0.08296
C          8.72589         3.53143         0.50811
C          9.67376         1.50903        -0.56250
C          9.89340         4.24893         0.27699
C          8.78135         6.35532         0.98368
C          8.74318         7.84327         0.68391
C          9.99711         5.62276         0.64903
C         10.04305         8.61653         1.03835
C          8.76979        10.66942         0.28721
C          8.69881        12.07473        -0.12221
C          9.96024        10.00509         0.43695
C          9.83414        12.82898        -0.12394
C          8.49805        14.96942        -0.45816
C          8.58609        16.41619        -0.85371
C          9.78031        14.30771        -0.08281
C          9.82923        17.16882        -0.50426
C          8.54831        19.25487        -0.31203
C          9.79033        18.65472        -0.41172
C         10.91170         2.15578        -0.77411
C         10.94390         3.66988        -0.65225
C         11.99838         1.45521        -1.26931
C         12.34796         4.16223        -0.37018
C         11.31193         6.32094         0.57845
C         11.32402         7.83997         0.63430
C         12.62473         5.59160         0.13404
C         12.47776         8.56239        -0.00023
C         11.23803        10.71472         0.28166
C         11.14812        12.17787         0.03090
C         12.46205         9.96790        -0.09299
C         12.28831        12.89513        -0.59949
C         11.04188        15.09215        -0.00577
C         11.04340        16.45552        -0.04379
C         12.29346        14.36306        -0.35644
C         12.32185        17.24897         0.18417
C         11.03916        19.34024        -0.49508
C         12.29094        18.68851        -0.30696
C         13.25037         2.11027        -1.79535
C         13.41918         3.48676        -1.14586
C         14.52079         1.34878        -1.40734
C         14.64134         4.24930        -1.56393
C         13.37261         6.41675        -0.94171
C         13.59973         7.85134        -0.48648
C         14.68563         5.78785        -1.52045
C         14.80403         8.54106        -0.76644
C         13.59261        10.65667        -0.57258
C         13.55045        12.11626        -0.98024
C         14.78792         9.95253        -0.81114
C         14.81656        12.84252        -0.41373
C         13.60054        15.04542        -0.03660
C         13.53953        16.53027        -0.44581
C         14.77307        14.32754        -0.63895
C         14.83287        17.23075        -0.04785
C         13.50828        19.34664        -0.41622
C         14.80388        18.75723         0.12026
C         15.72886         1.96831        -1.25147
C         15.88499         3.41557        -1.58096
C         16.90218         1.27380        -0.76574
C         17.22732         4.10090        -1.49348
C         15.98821         6.29701        -0.78358
C         16.07514         7.81948        -0.92952
C         17.24880         5.59078        -1.33502
C         17.26848         8.47494        -1.00336
C         16.03315        10.68819        -1.16030
C         16.05103        12.17073        -0.97836
C         17.38844         9.99063        -1.09952
C         17.38129        12.83891        -0.68037
C         16.06521        15.06591        -0.92686
C         16.08870        16.48255        -0.34962
C         17.20678        14.28934        -0.26847
C         17.37146        17.20894        -0.36456
C         16.09136        19.39181        -0.44971
C         17.37052        18.58671        -0.19133
C         18.12166         1.87203        -0.60563
C         18.45903         3.26176        -1.11748
C         19.20269         1.15033         0.03806
C         19.39328         3.96857        -0.12990
C         18.54578         6.25278        -0.94692
C         18.61629         7.78370        -0.97430
C         19.56728         5.43765        -0.23414
C         19.57937         8.39547         0.05298
C         18.17283        10.47615         0.17437
C         18.18181        12.06127         0.40357
C         19.53737         9.79802         0.28650
C         19.54003        12.72713         0.52665
C         18.47831        14.97754         0.06863
C         18.64502        16.39637        -0.49023
C         19.66912        14.11344         0.36552
C         19.87230        17.10342         0.07948
C         18.56435        19.23701         0.21363
C         19.74913        18.51676         0.50652
C         20.29574         1.79535         0.52974
C         20.38103         3.24428         0.49536
C         21.55302         3.92612         1.04319
C         20.43471         6.11514         0.80998
C         20.62736         7.61558         0.59482
C         21.65672         5.27166         1.09187
C         21.68146         8.27930         1.24389
C         20.62800        10.44809         0.89910
C         20.60760        11.93957         1.23678
C         21.71537         9.66894         1.32904
C         21.94769        12.61626         1.14328
C         20.90285        14.76698         0.65081
C         21.01150        16.25421         0.63940
C         22.04628        13.96503         0.94963
C         21.92190        16.93245         1.56793
C         20.82140        19.09133         1.19964
C         21.86666        18.29466         1.73571
O         11.47819        11.70481         1.37729
O         17.44270        14.73715         1.08827
O         15.92119         5.93401         0.56059
O         19.73919         5.75144        -1.66280
O          5.21835        14.37359        -2.21450
O          7.83987         9.61630         2.25293
O          2.67494        10.40608         1.57428
O         21.05732        16.84206        -0.73217
O          9.52947        16.70805        -1.91878
O          5.57182         8.47278         2.76061
O         11.99513        13.82689        -1.69530
O         15.53440        16.56568         1.04051
O         13.24965         3.24517         0.29848
O         15.17110         3.74444        -2.83151
O         11.67773         7.04514         1.80388
O          8.75812        14.73177         0.93505
O         17.34463         5.00543        -2.66171
O         15.94532        11.60839        -2.30093
O          4.77865         3.81768         2.38276
O          6.37464        12.07631         1.62437
O          6.28556         6.06787         3.14097
H          5.87706         6.83922         3.60279
O          4.02890         4.45210        -1.16401
H          3.34272         4.08314        -1.75890
O         18.09667        10.37559        -2.28666
H         18.73164         9.66173        -2.54140
O          7.56518         3.66232         2.63842
H          6.98094         4.27386         3.15428
O         14.78988        19.04624         1.53629
H         14.02573        18.54765         1.91982
O         14.85835        12.55829         1.02609
H         14.27436        13.21855         1.48416
O         13.10623         2.15205        -3.22732
H         13.90679         2.61326        -3.57735
O         19.60877         6.04346         2.01587
H         20.09281         6.48247         2.74602
O          2.64194        12.40870        -1.89089
H          3.29559        13.06944        -2.20712
O          2.97850         7.98393         2.69613
H          3.71792         8.05510         3.34280
O         16.29343        15.15699        -2.35290
H         16.95234        14.46544        -2.60439
O         18.86529        16.23109        -1.91682
H         19.84178        16.26105        -2.05907
O          3.25281        16.42301        -2.15343
H          3.95684        15.90281        -2.61046
O         13.58161        12.08258        -2.40999
H         13.25681        12.95222        -2.73940
O         10.11016         8.81280         2.45635
H         10.70877         8.12565         2.83237
O         12.53233        17.33871         1.62021
H         12.66298        16.41485         1.95287
O          4.28562        -0.04508        -0.53656
H          4.89457         2.83373         2.38973
O         19.24080         3.06963        -2.32259
H         19.38682         3.97147        -2.69440
O         10.61113         4.20276        -1.96759
H          9.73692         3.84375        -2.22876
O          7.19980        17.65710        -2.38527
H          8.10132        17.54409        -2.77592
O          7.47219        17.80635         1.26248
H          7.50908        18.53116         1.92098
O         13.38781        16.60542        -1.86969
H         14.11891        16.10597        -2.29640
O          5.96045         1.63417         1.69942
H          6.74453         1.93418         2.22542
O         14.79005         6.26263        -2.86906
H         15.41464         5.65154        -3.33503
O          1.57803         5.78824         1.91099
H          1.81553         6.63691         2.35910
O         17.54329        12.28055         1.68872
H         16.55904        12.38746         1.55607
O         12.43009         6.51117        -2.03378
H         12.96578         6.64971        -2.85262
O         15.91936        19.49105        -1.86646
H         16.77197        19.74554        -2.27420
O         20.21033        12.01869         2.66540
H         19.23237        12.15517         2.68952
O         18.14651        12.96020        -1.89509
H         18.05078        12.10230        -2.39425
O          6.61711         4.29243        -0.80843
H          5.76233         4.42968        -1.28611
O          7.16088        11.82583        -1.87140
H          7.70283        12.24605        -2.58177
O         17.40061         9.89331         1.24361
H         17.58375        10.40299         2.06581
O         19.27516         8.09346        -2.24880
H         19.91325         7.35783        -2.42126
O         13.64371        14.91858         1.43880
H         14.50020        15.34870         1.71461
O          8.56093         7.91806        -0.76070
H          9.19328         7.30625        -1.19531
O          7.80315        14.14168        -2.52712
H          6.97918        14.19583        -3.06372
O         13.41901         5.49003         1.30603
H         14.39144         5.63075         1.10457
H          1.13210         1.34861         2.16897
H          1.01729         3.67023         1.90702
H          2.56943        -0.21471         1.26325
H          1.41512         5.49558        -1.15934
H          1.39148         7.93977        -1.44973
H          0.02652        10.00074        -0.29958
H          0.28171        12.32472        -0.71668
H          0.27971        14.23749         0.38653
H          0.32447        16.69421         0.69466
H          1.47761        18.87582         0.47828
H          4.78471         2.25679        -1.36843
H          3.56562        20.15265         0.18927
H          7.18516         0.60625        -0.67373
H          5.97362        20.19748         0.17826
H          9.57149         0.44845        -0.84047
H          8.46295        20.35242        -0.27339
H         11.89721         0.36648        -1.41251
H         11.03288        20.43223        -0.64095
H         14.44481         0.26912        -1.20176
H         13.51878        20.40231        -0.73074
H         16.77420         0.23038        -0.43671
H         16.21531        20.42192        -0.00849
H         19.09017         0.06446         0.17718
H         18.53338        20.31245         0.44729
H         21.09947         1.23266         1.02636
H         22.40386         3.29762         1.34839
H         22.58029         5.73623         1.46679
H         22.50279         7.70436         1.69402
H         22.56799        10.14289         1.83383
H         22.86094        12.04003         1.34770
H         23.03310        14.44973         0.99525
H         22.64357        16.33428         2.14185
H         20.78147        20.15928         1.45753
H         22.60241        18.78128         2.39207
