         252
 CSIRO Nanostructure Databank - Neutral Graphene Oxide Data Set
C         30.33181        31.75951        -0.31431
C         30.31826        32.92350        -0.75510
C         30.36624        35.89477        -1.22003
C         30.44971        37.12083        -1.23101
C         30.49518        39.96306        -0.02560
C         30.40717        40.84882         0.85596
C         32.59418        29.04288         0.88993
C         31.53729        29.68556         0.74447
C         32.62035        31.75365         0.30498
C         31.40423        31.03618         0.29631
C         32.76315        32.97644        -0.53272
C         31.53576        33.62870        -1.18238
C         32.80623        35.84761        -1.34154
C         31.53088        35.04949        -1.71056
C         32.82530        37.21443        -1.28726
C         31.54985        38.06844        -1.46254
C         32.78189        40.01667        -0.47201
C         31.60227        39.30127        -0.62974
C         32.78483        41.33672         0.19857
C         31.47812        41.83139         0.93935
C         32.95159        43.31400         2.20018
C         31.87192        42.74122         2.01712
C         35.28425        27.55537         1.01387
C         35.16933        28.95541         1.05658
C         33.88759        29.65337         1.19500
C         35.17248        31.97708         0.94437
C         33.84291        31.18686         0.93071
C         35.15802        33.20792         0.03743
C         34.03050        33.75204        -0.48895
C         35.32055        35.86815        -1.06928
C         34.08921        35.02762        -1.34214
C         35.27772        37.29956        -1.24388
C         34.06907        37.98363        -1.17545
C         35.23861        40.14960        -0.81325
C         34.06104        39.41492        -0.87495
C         35.23342        41.61482        -0.38587
C         34.15081        41.83216         0.69964
C         35.46281        43.75763         1.76298
C         34.11335        43.34083         1.19171
C         35.55663        45.23317         2.09907
C         37.67128        27.46181         0.79974
C         36.37710        26.93269         0.91909
C         37.62188        28.88323         0.74686
C         36.41238        29.63382         0.85904
C         37.63445        31.75102         0.53321
C         36.44203        31.10985         0.73950
C         37.71106        33.21668         0.28350
C         36.44197        33.94797        -0.03867
C         37.84072        35.78644        -1.18701
C         36.49442        35.24540        -0.74446
C         37.84180        37.30992        -1.45051
C         36.52400        38.04984        -1.46455
C         37.76772        40.44633        -1.41009
C         36.49300        39.57391        -1.33784
C         37.76481        41.65681        -0.47548
C         36.60800        42.15760         0.04003
C         37.74153        44.45397         0.55920
C         36.55275        43.52658         0.67582
C         37.84838        45.71932         1.37444
C         36.55576        45.94132         1.94132
C         40.11273        24.66315         1.33762
C         39.07446        25.35532         1.17137
C         40.17496        27.36550         0.78796
C         38.91817        26.72859         0.88960
C         40.09325        28.76326         0.16240
C         38.96965        29.57826         0.85885
C         40.16969        31.77933         0.78059
C         38.93363        31.00738         0.27136
C         40.19210        33.20610         0.30066
C         39.02050        33.87892        -0.02839
C         40.18734        36.12978        -0.05791
C         39.01225        35.25233        -0.38818
C         40.40889        37.32704        -1.00745
C         39.11426        38.10143        -1.34150
C         40.37384        40.32923        -0.90223
C         39.10882        39.62734        -1.31551
C         40.35730        41.77825        -0.54973
C         39.03234        42.46526        -0.50146
C         40.30485        44.49112         0.45069
C         39.00859        43.89459        -0.02353
C         40.34704        45.80765         1.16283
C         39.00816        46.43019         1.50255
C         40.29024        48.42416         2.06512
C         39.25641        47.72643         2.03470
C         42.69284        24.71927         1.55594
C         41.40387        25.23904         1.30479
C         42.64457        27.42966         1.14320
C         41.41238        26.68048         1.02778
C         42.58859        28.91405         1.00792
C         41.48453        29.52529         0.14440
C         42.64619        31.70274         0.18179
C         41.43669        31.03089         0.40706
C         42.60434        33.13781        -0.35873
C         41.51162        33.90561         0.40074
C         42.69708        35.99768        -0.10788
C         41.48084        35.34837         0.01149
C         42.73231        37.42690        -0.14356
C         41.55386        38.16171        -0.44373
C         42.82877        40.27891        -0.35088
C         41.54743        39.54775        -0.44539
C         42.85141        41.78464        -0.45216
C         41.53157        42.46562        -0.40102
C         42.83627        44.65771         0.09906
C         41.54898        43.93832        -0.17344
C         42.81716        46.02306         0.72079
C         41.61102        46.62714         1.14271
C         42.83494        48.63371         1.54135
C         41.58017        47.99986         1.61626
C         43.72331        25.43571         1.64056
C         45.13336        27.56654         1.83899
C         43.86771        26.82878         1.49375
C         45.20607        29.02628         1.23781
C         43.88621        29.71435         0.99768
C         45.08376        31.58535        -0.31355
C         43.86770        31.00698         0.27800
C         45.13208        33.07784        -0.60219
C         43.93128        33.87432        -0.27604
C         45.21134        35.98898        -0.13757
C         43.95697        35.24410        -0.14982
C         45.23247        37.32894         0.16325
C         43.97024        38.08769         0.29285
C         45.29556        40.32979         0.18134
C         44.01317        39.60249         0.25003
C         45.32730        41.70596         0.06240
C         44.08994        42.49591        -0.02186
C         45.33603        44.56091         0.54682
C         44.08441        43.85110         0.19419
C         45.30943        46.05727         0.52962
C         44.07818        46.72902         0.73836
C         43.88365        48.07138         1.12973
C         47.38854        27.43818         0.80659
C         46.37686        26.88707         1.27066
C         47.68219        28.75506         0.37490
C         46.44029        29.57731         0.57203
C         47.71459        31.55458        -0.40915
C         46.39299        30.83948        -0.23850
C         47.73773        33.03613        -0.50113
C         46.46537        33.77477        -0.71533
C         47.76798        35.89990        -0.11734
C         46.47737        35.26995        -0.45350
C         47.79949        37.40722        -0.11998
C         46.50669        38.05592         0.37257
C         47.83752        40.23198         0.04513
C         46.54463        39.57238         0.40628
C         47.80913        41.67644        -0.14108
C         46.61937        42.37353         0.03123
C         47.93468        44.54550         0.09991
C         46.65929        43.81111         0.35521
C         47.72064        45.92460         0.30283
C         46.62649        46.52780         0.49242
C         50.18808        28.81447        -0.04329
C         48.89201        29.38373         0.06224
C         50.20402        31.50268        -0.25348
C         48.98270        30.83162        -0.09761
C         50.22495        33.01832        -0.02427
C         48.91440        33.72604        -0.32838
C         50.24494        35.86085        -0.02863
C         48.92761        35.17615        -0.20532
C         50.33384        37.31454         0.35429
C         49.02506        38.10079         0.55764
C         50.22486        40.09359        -0.67608
C         49.00935        39.52043         0.00348
C         50.16292        41.60496        -0.78826
C         49.06773        42.37945        -0.40406
C         50.40760        44.36813        -0.27711
C         49.08853        43.84085        -0.25714
C         51.29029        29.38018        -0.25879
C         52.56074        31.61538        -0.74657
C         51.45259        30.77409        -0.41371
C         52.43616        32.84335        -0.97253
C         51.42570        33.78531        -0.66422
C         52.44372        36.12549        -0.88474
C         51.42861        35.15021        -0.63522
C         52.50798        37.35708        -0.73317
C         51.70111        38.13220         0.32601
C         52.38500        40.58463         0.32332
C         51.51828        39.60177         0.07104
C         52.73675        41.83816         0.52670
C         52.14872        42.75815        -0.32552
C         51.59783        44.04432        -0.06144
O         31.42803        38.48127        -2.88881
O         32.37719        32.75143        -1.96561
O         43.11772        40.95101        -1.63105
O         43.77287        38.91163         1.50968
O         36.33940        38.90875        -2.63828
O         46.54096        38.77083         1.63390
O         42.98415        29.67736         2.16832
O         47.05469        30.81899        -1.51954
O         40.05175        40.09027        -2.33156
O         33.69117        30.59899         2.27305
O         36.61425        44.53781        -0.36777
O         44.85644        32.11769        -1.67132
O         46.14473        29.85620         2.00743
O         50.46828        36.26798         1.38042
O         39.70282        28.51886        -1.16378
O         31.88576        42.35933        -0.33957
O         42.19188        44.69087        -1.24147
O         38.96195        43.61386        -1.43511
O         46.49169        34.72057        -1.82937
O         46.07453        44.03117         1.69739
O         51.30424        42.13823        -1.38751
O         40.46130        44.52548         1.90702
O         38.61164        37.64171        -2.64199
O         37.06912        34.06228         1.30600
O         50.30420        39.52986        -2.00081
H         50.93275        40.07694        -2.51999
O         45.22494        27.67451         3.23465
H         45.88495        28.37268         3.44297
O         52.33943        37.99006         1.56080
H         52.20282        37.06598         1.87157
O         37.73357        41.05254        -2.71181
H         37.68418        40.32586        -3.37259
O         35.27904        32.53420         2.27637
H         34.92042        31.86172         2.90130
O         39.27866        29.57091         2.26062
H         38.68938        30.19881         2.72864
O         34.85288        42.39787        -1.52845
H         35.59390        42.39898        -2.17276
O         50.40538        33.17122         1.40646
H         51.25973        32.75953         1.65692
O         42.23005        33.06531        -1.73904
H         42.95367        32.60042        -2.22035
O         47.90337        37.74038        -1.53557
H         47.40014        37.08097        -2.06065
O         48.86663        38.19909         1.97484
H         49.21449        37.37099         2.37652
O         39.03658        30.98395        -1.16246
H         39.16369        30.03298        -1.47016
O         38.03287        35.14447        -2.48335
H         38.63270        35.73026        -3.00538
O         35.80887        42.99960         2.90365
H         35.08741        43.08100         3.56306
O         39.87276        36.71937         1.25516
H         39.49303        36.01653         1.82571
O         32.59540        39.26248        -3.21427
H         33.11721        38.65716        -3.79680
O         40.13839        31.86968         2.23409
H         40.94335        32.37748         2.50095
O         41.99183        29.39054        -1.20061
H         41.22044        29.00277        -1.71824
O         40.89866        36.76762        -2.23903
H         40.90025        37.47478        -2.91895
O         33.78824        44.21031         0.16190
H         32.98223        43.87948        -0.30264
O         31.48609        34.98867        -3.12565
H         30.79979        34.34457        -3.39791
O         34.29019        34.59224        -2.71500
H         33.53206        34.00748        -2.95859
O         34.52041        40.98038         1.79577
H         33.89152        41.13165         2.53415
O         41.93227        33.85305         1.81532
H         41.56213        34.63798         2.27356
