         277
 CSIRO Nanostructure Databank - Neutral Graphene Oxide Data Set
C         30.29620        31.81240         0.87957
C         30.35045        33.04093         0.68681
C         30.56745        35.91618        -0.64665
C         30.54833        37.01888        -1.21083
C         30.37972        40.05424        -0.88886
C         30.37578        41.32577        -0.82295
C         32.66704        29.04903         0.72925
C         31.44380        29.51175         0.85783
C         32.67500        31.64604         1.28976
C         31.36179        30.87506         0.99843
C         32.70549        33.15274         1.10049
C         31.49495        33.89336         0.57467
C         32.94376        35.75710        -0.37717
C         31.58041        35.10289        -0.04545
C         32.83351        37.31845        -0.47515
C         31.75650        37.85504        -1.56355
C         32.82284        40.17503        -0.98454
C         31.60054        39.36280        -1.36676
C         32.73342        41.52158        -0.21763
C         31.35474        42.26380        -0.50415
C         32.62318        44.34541        -0.53455
C         31.58147        43.63014        -0.62922
C         35.33640        27.40075        -0.09067
C         35.15012        28.88350         0.02751
C         33.93688        29.43783         0.71314
C         35.28038        31.57916         0.80317
C         34.03195        30.86049         1.38274
C         35.30616        33.07114         0.75304
C         34.04331        33.84564         0.94414
C         35.33402        35.97530         0.40860
C         33.97420        35.35050         0.70997
C         35.26128        37.50313         0.36967
C         34.22055        37.92581        -0.75682
C         35.33162        40.25303        -0.39339
C         34.15290        39.46679        -0.84607
C         35.24776        41.72270        -0.15438
C         33.96480        42.38853        -0.47094
C         35.17296        44.54197        -0.64049
C         33.96178        43.80049        -0.56871
C         35.44563        45.90019        -0.56506
C         37.76216        27.36340        -0.44056
C         36.39516        26.79258        -0.24057
C         37.72956        28.64674         0.46872
C         36.40429        29.37360         0.81766
C         37.77808        31.53426         0.28490
C         36.44289        30.89205         0.64957
C         37.79599        33.06951         0.39700
C         36.46911        33.73002         0.00896
C         37.75538        35.92866        -0.17300
C         36.45643        35.25066         0.14248
C         37.80910        37.41158        -0.09632
C         36.57218        38.19202         0.09220
C         37.82221        40.30426        -0.27125
C         36.59418        39.54584        -0.06502
C         37.81178        41.66609        -0.42177
C         36.55037        42.45239        -0.27364
C         37.78065        44.64772        -0.59700
C         36.52648        43.83433        -0.91284
C         37.79322        46.02656        -0.53729
C         36.48174        46.62983        -0.61411
C         40.15078        24.50786         0.65757
C         39.17599        25.30705         0.39824
C         40.33827        27.27265        -0.17562
C         38.96188        26.58106        -0.00555
C         40.32339        28.72878         0.25656
C         39.03405        29.35114         0.68242
C         40.26164        31.59312         0.89666
C         38.92619        30.84100         1.08179
C         40.26629        33.07907         0.72497
C         38.96190        33.76734         0.48515
C         40.29049        35.98376         0.25996
C         39.07630        35.14827        -0.14593
C         40.33222        37.34817         0.16034
C         39.06656        38.15299         0.29092
C         40.39219        40.24236        -0.37144
C         39.08552        39.52437        -0.35687
C         40.35925        41.72075        -0.26418
C         39.08171        42.41988        -0.58670
C         40.28914        44.66813        -0.14458
C         39.08133        43.92538        -0.62085
C         40.30723        46.03322        -0.09397
C         39.08281        46.79717        -0.67415
C         40.09709        48.70408         0.45553
C         39.08704        48.14178         0.01768
C         42.72472        24.50362         0.87283
C         41.45347        25.09103         0.67245
C         42.77047        27.20543         0.35213
C         41.53428        26.51425         0.37978
C         42.80835        28.68606         0.31322
C         41.51438        29.37784         0.40347
C         42.77090        31.62100         0.33693
C         41.48750        30.86651         0.42573
C         42.75962        33.11612         0.44628
C         41.54509        33.78857         0.42784
C         42.82943        35.96467         0.34412
C         41.54418        35.26176         0.70580
C         42.82617        37.39054         0.28789
C         41.58598        38.09542         0.22354
C         42.80653        40.21783         0.19495
C         41.60259        39.50044         0.06453
C         42.80786        41.70355        -0.08774
C         41.47785        42.40976         0.06369
C         42.72997        44.59171         0.49683
C         41.40229        43.86363         0.51161
C         42.68500        46.04410         0.71852
C         41.47239        46.75587         0.46822
C         42.57519        48.72199         1.26018
C         41.38407        48.16590         0.77708
C         43.80297        25.15120         0.74284
C         45.25956        27.22119         0.06536
C         44.01174        26.50276         0.46471
C         45.28528        28.62258         0.76824
C         43.99618        29.37385         0.44062
C         45.29679        31.60373         0.57601
C         43.98832        30.84335         0.83357
C         45.28254        33.08919         0.36675
C         43.99899        33.82852         0.33789
C         45.31671        35.95271         0.05756
C         44.03521        35.24396         0.24504
C         45.33045        37.42795         0.09253
C         44.05209        38.11582         0.27049
C         45.35220        40.20073         0.55541
C         44.02355        39.52256         0.31909
C         45.26635        41.72109         0.61430
C         43.96072        42.43251         0.55119
C         45.19003        44.63163         0.80329
C         43.91454        43.91570         0.50693
C         44.98880        45.82070         1.76683
C         43.84916        46.67410         1.26436
C         43.60875        48.02590         1.49620
C         47.60574        27.29633         0.37352
C         46.59320        26.58486         0.40583
C         47.81673        28.72331         0.37817
C         46.57703        29.38907         0.50534
C         47.80924        31.59683         0.01854
C         46.52871        30.82894         0.19005
C         47.79425        33.12794         0.20633
C         46.47490        33.74925        -0.32862
C         47.81387        36.00726        -0.24099
C         46.48171        35.26299        -0.15600
C         47.63932        37.41878        -0.84721
C         46.47317        38.13936        -0.21039
C         47.75959        40.36022        -0.07916
C         46.43931        39.65081        -0.38944
C         47.77109        41.66719         0.29850
C         46.49477        42.48185         0.12229
C         47.74106        44.43404         1.33063
C         46.50835        43.92413         0.63599
C         47.39049        45.70431         1.89797
C         46.37305        46.41395         1.91728
C         50.14063        28.87400        -0.60417
C         49.03104        29.37915         0.08282
C         50.11729        31.53259        -0.81258
C         49.16503        30.90643         0.23486
C         50.30653        33.02860        -0.67510
C         49.06151        33.80390        -0.36743
C         50.23792        35.88796        -1.03858
C         48.89594        35.18017        -1.00051
C         50.24563        37.38527        -0.88029
C         48.98519        38.19595        -0.82529
C         50.09905        40.01494         0.73416
C         49.09548        39.70145        -0.41791
C         50.26043        41.54826         0.86941
C         49.07214        42.44015         0.46131
C         50.19411        44.07738         1.80353
C         48.90146        43.72733         1.32507
C         51.15815        29.32573        -1.21314
C         52.05690        31.60252        -2.28515
C         51.04339        30.70252        -1.73805
C         52.03705        32.84491        -2.35480
C         51.60590        33.72548        -1.22289
C         52.51842        36.12726        -1.26106
C         51.39916        35.21619        -1.34998
C         52.68194        37.29530        -0.87844
C         51.50716        37.97686        -0.26276
C         52.58787        40.07991         0.89743
C         51.45617        39.21272         0.55929
C         52.55976        41.23621         1.33579
C         51.42944        42.13601         1.33970
C         51.30620        43.51554         1.76169
O         37.75311        36.75047        -1.41194
O         49.71392        38.01546        -2.09079
O         35.92915        42.26628         1.04057
O         40.46771        32.44444         2.08181
O         45.56334        32.51484         1.69575
O         34.97353        33.63150         2.06641
O         38.47892        28.43238         1.69679
O         39.80590        39.66492        -1.60682
O         39.23503        43.14669        -1.88110
O         47.09207        31.14422        -1.14380
O         50.11174        33.63197         0.63973
O         32.33077        40.14949        -2.35442
O         35.07994        39.98455        -1.85055
O         32.52372        32.55811         2.42404
O         51.42825        37.91062         1.18447
O         49.72768        31.11796        -2.15960
O         42.07119        31.25109        -0.88850
O         46.30897        42.54847        -1.32219
O         44.55684        42.06634         1.85379
O         32.37652        37.85281         0.76959
H         31.54019        37.40315         1.02013
O         35.20906        29.42945        -1.29311
H         34.54513        28.98048        -1.85615
O         45.20404        28.35285         2.19046
H         44.83796        29.16062         2.62678
O         49.60274        40.41309        -1.57151
H         49.81033        39.74810        -2.27602
O         34.85896        38.04032         1.63357
H         33.98740        37.64095         1.88391
O         41.02395        43.79506         1.92875
H         41.79315        43.45619         2.43552
O         41.45966        35.35707         2.20466
H         41.32097        34.45112         2.56183
O         46.01833        44.88769        -0.37208
H         46.10981        43.49387        -1.54595
O         43.82248        30.79598         2.28741
H         44.29052        31.59201         2.64695
O         46.12258        39.87181        -1.78354
H         46.14450        40.85233        -1.94277
O         36.56565        43.60226        -2.34662
H         37.50038        43.37382        -2.58483
O         47.83526        33.44500         1.61226
H         48.64084        33.00853         1.97991
O         39.37694        34.79888        -1.53520
H         39.16353        35.59744        -2.07521
O         49.48772        39.54739         1.93777
H         50.15286        39.54113         2.65708
O         38.94671        38.43892         1.71802
H         39.28889        37.67514         2.22939
O         46.29461        33.48948        -1.72736
H         47.04483        33.90342        -2.22873
O         36.25542        33.42070        -1.39760
H         36.80542        34.03564        -1.93038
O         34.26747        30.68168         2.77279
H         33.87823        31.45851         3.23848
O         38.03261        31.25755        -1.10815
H         37.32974        31.71144        -1.63142
O         39.32021        46.98193        -2.06496
H         38.50423        47.33069        -2.48109
O         36.12185        29.06066         2.17844
H         36.93293        29.25019         2.70354
O         43.12406        41.83420        -1.51695
H         42.39154        41.43005        -2.03092
O         33.46454        35.85497         1.96653
H         33.95898        35.39756         2.68343
O         32.18528        37.56906        -2.86966
H         32.35097        38.41975        -3.33825
O         52.59626        33.57012        -0.20294
H         52.30018        34.06576         0.59068
O         37.88678        27.74571        -1.80165
H         38.83397        27.67929        -2.07915
O         49.39091        42.98739        -0.83828
H         49.51525        42.22279        -1.45378
O         32.75860        41.13468         1.16567
H         32.96035        41.91856         1.71852
O         45.80339        39.78436         1.86908
H         45.26185        40.27098         2.52984
O         45.20968        27.44277        -1.33842
H         45.24255        26.58208        -1.80408
O         44.58539        45.27329         3.02327
H         44.42279        46.00878         3.64989
O         38.54850        30.87232         2.46185
H         39.11023        31.54620         2.91353
O         40.54645        27.30659        -1.63335
H         40.80658        26.40776        -1.92981
O         47.25171        37.28051        -2.23757
H         46.89480        38.15563        -2.52761
O         48.28985        36.19321         1.10448
H         48.20048        35.32703         1.57892
O         49.59642        31.21853         1.56918
H         50.46549        30.79545         1.73187
O         33.39065        35.20912        -1.61353
H         33.04899        35.76555        -2.35138
O         48.48099        34.93711        -2.36326
H         48.19768        35.80564        -2.74873
O         34.69588        37.43301        -2.00404
H         35.27687        38.12934        -2.39309
