         272
 CSIRO Nanostructure Databank - Neutral Graphene Oxide Data Set
C        -11.36349         0.75355        -0.58961
C        -10.14995         1.47648        -1.15723
C         -8.90102         0.57864        -1.07626
C         -7.63898         1.35552        -0.83125
C         -6.48977         0.77929        -0.07480
C         -5.17492         1.51030         0.04063
C         -3.99981         0.81958         0.67355
C         -2.70368         1.52174         0.37359
C         -1.43707         0.72984         0.24447
C         -0.13681         1.46945         0.10399
C          1.12151         0.63840        -0.11111
C          2.43232         1.35760        -0.21600
C          3.72746         0.59206        -0.43008
C          5.00681         1.35882        -0.64587
C          6.32486         0.63455        -0.58502
C          7.58559         1.46652        -0.53089
C          8.87061         0.74976        -0.50007
C         10.06677         1.44359        -1.13674
C         11.31493         0.70810        -0.69772
C         -9.80676         2.84591        -0.54680
C         -8.59129         3.51684        -0.72909
C         -7.57413         2.70501        -1.56871
C         -6.07266         3.01060        -1.82537
C         -4.94180         2.77428        -0.80451
C         -3.70471         3.64381        -0.53418
C         -2.77673         3.05867         0.56365
C         -1.36125         3.71840         0.71286
C         -0.09979         2.94479         0.37095
C          1.24400         3.58013         0.59817
C          2.51665         2.79757         0.23393
C          3.78861         3.55767        -0.01427
C          5.07115         2.83907        -0.37161
C          6.32507         3.59381        -0.67146
C          7.55436         2.85833        -1.23090
C          8.84463         3.61626        -0.86155
C         10.00571         2.93187        -0.79448
C         -8.35179         4.74986        -0.05440
C         -7.23771         5.63835        -0.17944
C         -6.25170         5.47738        -1.28861
C         -4.82062         6.00839        -1.06080
C         -3.55875         5.16099        -0.80218
C         -2.33394         5.89866        -0.24034
C         -1.25896         5.21275         0.59629
C          0.09217         5.94047         0.91657
C          1.33687         5.06077         0.79183
C          2.66188         5.76627         0.55662
C          3.59859         5.03331        -0.40359
C          4.90140         5.76768        -0.75357
C          6.22371         5.06145        -0.93932
C          7.48318         5.84776        -0.90241
C          8.79057         5.11843        -0.58087
C         -7.12414         6.85231         0.48227
C         -6.19784         7.96411        -0.02486
C         -4.86312         7.43685        -0.57441
C         -3.56966         8.19213        -0.28254
C         -2.29209         7.41680        -0.22456
C         -0.99341         8.10494         0.10298
C          0.25167         7.33565         0.34240
C          1.44506         8.06234         1.01448
C          2.72540         7.25642         0.68544
C          3.92589         8.00254         0.16762
C          4.92008         7.27638        -0.68812
C          6.19762         8.00431        -1.02630
C          7.44845         7.20202        -1.02564
C         -5.96642         9.03183         1.02362
C         -4.86040         9.78013         1.12725
C         -3.63493         9.62523         0.24819
C         -2.35840        10.00865         1.05566
C         -1.02550         9.52746         0.50793
C          0.15199        10.19568         0.66809
C          1.45677         9.52756         0.55633
C          2.61351        10.18172         0.26537
C          3.92959         9.50191         0.13925
C          5.11397        10.17283        -0.47308
C          6.22588         9.48071        -0.80099
C        -11.44694        -0.56435        -0.33330
C        -10.25225        -1.44901        -0.04575
C         -8.96944        -0.79497        -0.51083
C         -7.79356        -1.44593         0.15580
C         -6.54325        -0.66708         0.37272
C         -5.27066        -1.42340         0.61865
C         -3.98808        -0.67968         0.84361
C         -2.69015        -1.45829         0.72155
C         -1.38531        -0.75433         0.53821
C         -0.07130        -1.31435         1.08863
C          1.11430        -0.84181         0.22563
C          2.43659        -1.55621         0.31894
C          3.73380        -0.89910        -0.13109
C          5.06379        -1.57121         0.11656
C          6.34989        -0.80601        -0.16041
C          7.68904        -1.33071         0.39789
C          8.78464        -0.77321        -0.57940
C         10.12305        -1.45624        -0.33739
C         11.31136        -0.60231        -0.36096
C        -10.19849        -2.89789        -0.53768
C         -9.04043        -3.60348        -0.47945
C         -7.78094        -2.94977         0.02248
C         -6.43106        -3.60362        -0.20862
C         -5.15441        -2.81519         0.03376
C         -3.85274        -3.53350         0.24141
C         -2.80977        -2.91601         1.19219
C         -1.41985        -3.61128         1.25348
C         -0.11908        -2.84801         1.25903
C          1.22531        -3.57078         1.34072
C          2.52183        -2.84665         1.10252
C          3.86638        -3.56770         1.23084
C          5.15442        -2.85198         0.91937
C          6.47253        -3.60546         0.81643
C          7.72467        -2.86477         0.47707
C          8.84098        -3.61000        -0.28824
C         10.12966        -2.80428        -0.18140
C         -9.02245        -5.12543        -0.74470
C         -7.61714        -5.77065        -0.63981
C         -6.64343        -4.76007        -1.18903
C         -4.79530        -5.90214         0.78225
C         -3.82932        -5.02368        -0.01237
C         -2.42304        -5.64400         0.10140
C         -1.46474        -5.14829         1.16585
C         -0.08177        -5.84113         1.16201
C          1.20880        -5.08691         1.38079
C          2.53439        -5.82250         1.21726
C          3.84654        -5.08272         1.25372
C          5.13140        -5.80258         0.85816
C          6.44085        -5.10328         0.68915
C          7.63167        -5.81077         0.11874
C          8.96916        -5.07566         0.19247
C         -7.46245        -7.04161        -0.21139
C         -6.24213        -7.91057         0.16353
C         -4.89691        -7.22762         0.11472
C         -3.73859        -7.81743        -0.32652
C         -2.44028        -7.09112        -0.21884
C         -1.18575        -7.88764        -0.07288
C         -0.03363        -7.30354         0.69735
C          1.27307        -8.00288         0.51653
C          2.52131        -7.13034         0.40451
C          3.78892        -7.94234         0.63373
C          5.02242        -7.17288         0.25419
C          6.26059        -7.87029        -0.20236
C          7.55251        -7.12859        -0.17998
C         -6.18199        -9.23000        -0.57285
C         -5.02091        -9.85502        -0.86530
C         -3.70617        -9.24850        -0.63599
C         -2.54254        -9.97863        -0.61148
C         -1.19264        -9.37456        -0.41927
C          0.03767       -10.10549        -0.09436
C          1.33960        -9.34453        -0.27737
C          2.56438       -10.13035         0.11538
C          3.80287        -9.44291         0.43364
C          5.11248       -10.06440         0.09381
C          6.22495        -9.35755        -0.18672
O          1.18018         8.05529         2.37894
O         -2.73209         8.06761        -1.46169
O         -4.77571        -1.16671         1.96025
O         -1.50393         4.54844         1.88310
O         -7.50078        -0.89381         1.46734
O         -1.99980        -6.02890        -1.21108
O          7.47303        -3.27205         1.85446
O         -2.25510         1.03125        -0.91746
O          6.42043        -0.44283        -1.56016
O          1.51676        -1.73157        -0.82826
O         -4.83198         7.12272        -2.00283
O          4.62904        -2.86410         2.26868
O         -3.73447         2.76733        -1.65108
O         -7.14205        -3.74704         1.05445
O          3.45437         3.06651         1.31639
O         -0.80646        -3.18825         2.51073
O         -5.40172        -5.60296         1.79251
O          1.36664         4.14291         1.93558
O          0.47883        -5.66667         2.49664
O         -1.99222        -1.47633        -0.56215
O         -8.10874         2.57253        -2.88653
O          1.92174        -2.86549         2.43450
O         -0.24195         2.45417        -0.97753
O          4.45096         8.75509         1.31014
O          1.64318         1.03422        -1.40136
O          5.35026         5.32892        -2.07731
O         -7.51059         1.57964         0.61089
O          8.34556         1.40600         0.69814
O          4.20782         0.94334        -1.77038
O         -8.82120        -0.57810        -1.95166
O          7.52184         2.67642        -2.59487
O         -6.65171         5.26504        -2.41890
O          3.82986        -8.74957         1.80620
O         -2.39431         5.39974        -1.61616
O         -4.12741        -2.81697        -1.00095
O         -0.02143         7.71467        -0.99081
O          3.29604        -5.74888         2.43573
O          0.54668        -8.14309         1.75304
O         -4.91173         1.56750         1.48723
O          8.38975        -1.09137        -1.88277
O          5.13813         7.78120        -2.03786
O          6.07258        -5.74073         1.97101
O         -6.46323        -4.62400        -2.38495
O          6.04655         3.17502         0.69043
O          5.30391        -7.25609        -1.16941
O          3.18161         6.35591         1.75990
O         -0.86602        -8.33765        -1.43314
O          4.34152        -1.75231        -1.13923
O          7.87492        -0.80698         1.70107
H          7.76287        -1.54268         2.34997
O         -9.94047        -5.76924         0.12575
H         -9.72999        -5.51035         1.04663
O         -3.47423         3.37951         1.76742
H         -2.97445         3.07409         2.55213
O        -10.23268        -1.53670         1.40872
H         -9.50472        -0.98619         1.77216
O         -2.10627        -5.59350         2.37894
H         -1.47822        -5.41560         3.11724
O         -3.75137        10.50874        -0.87714
H         -3.32871        10.06683        -1.64726
O          8.42419        -3.71455        -1.65843
H          8.42172        -2.79656        -2.05502
O        -10.55159         1.71447        -2.52193
H         -9.76440         2.04367        -3.02200
O          1.58517        -9.02290        -1.68713
H          0.70555        -8.88258        -2.12128
O          9.95989         1.33090        -2.56878
H          9.09472         1.75181        -2.83696
O          2.53428        -6.64282        -0.95630
H          2.39535        -7.42243        -1.56072
O          9.45932        -5.13657         1.53042
H          8.78465        -4.72924         2.12143
O          9.05905         5.31194         0.82006
H          8.45380         4.74070         1.33812
O         -3.35358        -3.06178         2.49734
H         -2.63992        -2.91709         3.15643
O         -4.25688        -5.27010        -1.35371
H         -3.95041        -4.53547        -1.93327
O         -2.49928         9.35882         2.33131
H         -1.67184         9.47920         2.84378
O         -5.73001         3.04546        -2.99131
H         -7.39469         2.87051        -3.51236
O         -0.01539         6.28059         2.32162
H          0.62621         5.74223         2.84063
O         -6.46526        -8.22940         1.56854
H         -6.37275        -7.38423         2.06968
O          0.10547        -0.71633         2.38770
H          0.64041        -1.33963         2.93696
O          2.82218         4.99179        -1.62766
H          3.45087         4.95326        -2.38764
O         -6.92753         8.56846        -1.11851
H         -6.62121         8.13556        -1.94931
H         12.26436        -1.09286        -0.10505
H         12.27210         1.25263        -0.70990
H         10.94403         3.46061        -0.55969
H          9.62291         5.62339        -1.13467
H          8.39390         7.76441        -0.96310
H          7.13675        10.01927        -1.10451
H          5.13384        11.27329        -0.46192
H          2.57055        11.24801        -0.00939
H          0.13950        11.26161         0.94809
H         -2.33909        11.12461         1.19364
H         -4.82347        10.56975         1.89316
H         -6.81512         9.23933         1.69432
H         -7.90253         7.14171         1.20780
H         -9.14479         5.07089         0.64213
H        -10.60469         3.36978         0.00572
H        -12.29947         1.33351        -0.63532
H        -12.42910        -0.98505        -0.06493
H        -11.12856        -3.40618        -0.83630
H         -9.38602        -5.29889        -1.79370
H         -8.40389        -7.54124         0.08908
H         -7.13565        -9.73903        -0.77865
H         -5.04204       -10.85941        -1.31542
H         -2.59477       -11.06852        -0.75441
H          0.00374       -10.90058         0.66784
H          2.67314       -11.10291        -0.39529
H          5.14659       -11.16407         0.05888
H          7.15966        -9.88979        -0.41994
H          8.45770        -7.67648        -0.48433
H          9.71020        -5.59806        -0.46068
H         11.07436        -3.34348        -0.01118
