         668
 CSIRO Nanostructure Databank - Neutral Graphene Oxide Data Set
C          6.97994        31.89183        -2.22105
C          7.20393        33.19286        -2.57763
C          8.52772        27.82476         0.09588
C          8.41915        29.20981         0.01002
C          7.51448        29.88700        -0.88524
C          9.13444        31.76813        -0.93354
C          7.81945        31.16589        -1.29678
C          9.41720        33.14897        -1.44963
C          8.31670        33.94650        -2.04347
C          9.21644        36.07553        -1.11385
C          8.26826        35.31889        -1.91437
C          8.92209        37.29498        -0.57061
C         10.88060        23.45251         0.35939
C         10.91719        24.90846         0.47714
C          9.72543        25.70668         0.28407
C         10.92554        27.71742         1.00912
C          9.68802        27.07433         0.52739
C         10.94255        28.92330         1.62999
C          9.33368        30.07051         0.74021
C         11.08017        31.90845         0.82296
C          9.85675        31.25164         0.27203
C         11.23249        33.39744         0.46754
C         10.51818        33.89124        -0.79255
C         11.18104        35.73731         0.59024
C         10.45045        35.37476        -0.69218
C         10.92223        37.17287         1.06630
C          9.79897        37.94917         0.43581
C         10.94693        40.16238         0.81224
C          9.82561        39.43788         0.48542
C         10.96463        41.59194         0.87743
C         13.24710        19.13865         0.11667
C         13.22491        20.57553         0.29914
C         12.05156        21.28909         0.17215
C         13.35623        23.46547         0.09260
C         12.03678        22.72417         0.24251
C         13.34586        24.67772         1.03874
C         12.11975        25.52158         0.75383
C         13.37482        27.48604         1.62351
C         12.23949        27.01634         0.72873
C         13.37940        28.94396         2.06229
C         12.09526        29.78523         2.04189
C         13.47644        31.84640         1.75676
C         12.14457        31.18853         1.35880
C         13.76180        33.10973         0.98690
C         12.65575        33.86808         0.40232
C         13.53594        35.92769         1.41942
C         12.63527        35.33872         0.59798
C         13.42331        37.35878         1.74772
C         12.12231        38.02227         1.49477
C         13.41901        40.21624         1.49131
C         12.26168        39.42515         0.89661
C         13.36584        41.67107         1.52943
C         12.11357        42.33612         1.16726
C         13.26660        44.52552         1.22467
C         12.11321        43.75173         1.02619
C         13.30853        45.88708         0.90333
C         15.62869        15.15568        -1.19367
C         15.65248        16.32288        -0.49381
C         14.33782        16.89517         0.00744
C         15.61178        18.97504         0.81761
C         14.36887        18.38241         0.26329
C         15.68814        20.48181         0.89790
C         14.49613        21.27497         0.50521
C         15.90860        23.34044         0.27433
C         14.57980        22.62504         0.37481
C         15.88397        24.74167         0.88549
C         14.66160        25.43177         1.05240
C         15.88893        27.43485         1.76904
C         14.67185        26.78110         1.45373
C         15.88471        28.85261         2.06158
C         14.68851        29.57663         2.06833
C         15.94615        31.71520         2.15625
C         14.75958        30.98321         1.55283
C         15.95030        33.08162         2.20401
C         15.01152        33.89196         1.35801
C         15.91168        36.00193         2.30694
C         14.66092        35.18927         2.08632
C         15.90010        37.40008         2.24228
C         14.73727        38.10594         1.56589
C         15.71923        40.32065         2.40926
C         14.56577        39.57041         1.86737
C         15.76939        41.77348         2.11644
C         14.51206        42.40912         1.79862
C         15.77733        44.58544         1.56792
C         14.46294        43.91205         1.91574
C         15.77890        45.94597         1.19123
C         14.52949        46.62366         0.90399
C         15.78480        48.65810         0.32576
C         14.56005        47.96399         0.50414
C         15.79294        49.96765        -0.22275
C         18.09757        11.58530        -3.71289
C         18.09481        12.77357        -2.92948
C         16.90623        13.38610        -2.54320
C         18.10990        15.22935        -1.36038
C         16.88285        14.34748        -1.38646
C         18.12604        16.39691        -0.44716
C         16.90925        16.94701        -0.08298
C         18.19877        18.87640         1.03073
C         16.88732        18.17152         0.74831
C         18.19120        20.35600         1.46949
C         17.00520        21.15795         0.93638
C         18.34939        23.21175         0.98417
C         17.09550        22.51715         0.75512
C         18.37366        24.71154         0.71448
C         17.09899        25.40560         1.13666
C         18.37572        27.45702         1.81090
C         17.12455        26.75146         1.58123
C         18.36819        28.83868         2.17836
C         17.13814        29.55017         2.21575
C         18.36143        31.64349         2.65624
C         17.14810        30.96151         2.44676
C         18.35043        33.07232         2.99320
C         17.02546        33.83969         2.83698
C         18.29370        35.99581         2.89269
C         17.07666        35.30603         2.68607
C         18.28867        37.41903         2.82442
C         17.07588        38.10305         2.57324
C         18.26585        40.33624         2.81380
C         16.98485        39.57435         2.75773
C         18.24998        41.81957         2.45294
C         16.96693        42.48020         2.10454
C         18.23378        44.58563         1.57127
C         16.99552        43.89323         1.74714
C         18.23923        45.95530         1.26258
C         17.01502        46.64844         1.04290
C         18.26935        48.69698         0.33840
C         17.02312        48.01408         0.61046
C         18.25857        50.00654        -0.28888
C         16.98594        50.61586        -0.55503
C         18.10533        52.54112        -1.56445
C         16.94890        51.88270        -1.21687
C         18.02691        53.76758        -2.32983
C         20.42729         7.39852        -5.01462
C         20.42055         8.59360        -4.10504
C         19.23978         9.50363        -4.27857
C         20.61088        11.53345        -3.70993
C         19.28598        10.83018        -3.90527
C         20.56044        12.61641        -2.65290
C         19.37920        13.26514        -2.41365
C         20.64771        15.09390        -1.17109
C         19.39667        14.58551        -1.75117
C         20.63134        16.35496        -0.49887
C         19.40193        17.01564        -0.14768
C         20.68055        18.95828         0.65699
C         19.44535        18.27744         0.49145
C         20.70564        20.35001         1.04884
C         19.50440        21.05343         1.21150
C         20.76586        23.13047         1.75401
C         19.50363        22.48728         1.24685
C         20.87014        24.60195         1.48989
C         19.65683        25.40466         1.18129
C         20.81422        27.43023         2.09423
C         19.61896        26.79720         1.68737
C         20.83556        28.82677         2.36559
C         19.60390        29.53308         2.38760
C         20.83232        31.66695         2.63225
C         19.61192        30.95250         2.58624
C         20.78893        33.15405         2.37067
C         19.57128        33.87392         2.89934
C         20.82711        36.00774         3.19390
C         19.53892        35.24765         2.97133
C         20.77755        37.45681         2.78985
C         19.55293        38.15974         2.81405
C         20.72341        40.30011         2.52781
C         19.52418        39.57727         2.67757
C         20.70891        41.72391         2.14419
C         19.51783        42.41081         1.98597
C         20.81084        44.51555         1.24978
C         19.50497        43.80620         1.48769
C         20.82041        46.01393         1.31911
C         19.50600        46.73544         1.21435
C         20.73544        48.64012        -0.02084
C         19.48614        48.09337         0.63301
C         20.75108        50.14071        -0.29760
C         19.45942        50.69615        -0.60760
C         20.58393        52.68389        -1.53511
C         19.40439        51.99430        -1.22076
C         20.48870        54.09924        -2.09995
C         19.13313        54.46666        -2.65675
C         20.11900        55.85419        -4.49662
C         19.03268        55.74658        -3.44857
C         19.87529        56.48804        -5.67525
C         22.76918         4.70669        -6.05532
C         21.59847         5.42770        -5.90984
C         22.87418         7.25082        -4.80065
C         21.59263         6.69584        -5.23553
C         22.93729         8.52875        -4.28336
C         21.74366         9.31992        -4.05632
C         23.11593        11.27601        -3.24033
C         21.80391        10.61766        -3.62099
C         22.95778        12.34023        -2.17443
C         21.80924        13.08896        -2.06238
C         23.08096        14.93169        -0.93123
C         21.82752        14.36041        -1.33680
C         23.10598        16.25340        -0.38819
C         21.87981        16.95305        -0.15531
C         23.15866        18.92936         0.55707
C         21.90046        18.28478         0.35400
C         23.19347        20.32799         0.89981
C         21.98787        21.03693         1.09195
C         23.25405        23.13559         1.40089
C         22.04516        22.42986         1.37376
C         23.30291        24.56457         1.74865
C         22.08949        25.23662         2.02202
C         23.36778        27.41277         2.46266
C         22.05482        26.66556         2.32066
C         23.33135        28.88327         2.32634
C         22.08358        29.54667         2.45489
C         23.30954        31.68682         2.42045
C         22.07065        30.97661         2.53075
C         23.32622        33.14376         2.69754
C         22.06067        33.90832         2.62770
C         23.30891        36.00008         2.30677
C         22.06184        35.26020         2.73590
C         23.29948        37.49132         2.50019
C         21.99824        38.15590         2.61440
C         23.15291        40.29855         2.26033
C         21.93107        39.55777         2.55297
C         23.05510        41.73247         2.52138
C         21.97416        42.45112         2.10185
C         23.36527        44.68909         1.79814
C         22.15969        43.78203         1.36205
C         23.29913        46.02636         1.05707
C         22.07818        46.68673         0.90113
C         23.19741        48.74606         0.25330
C         22.02395        48.03954         0.47056
C         23.16830        50.25139         0.23534
C         21.93261        50.86796        -0.49169
C         23.00316        52.92612        -1.67515
C         21.88098        52.17445        -1.16729
C         22.84928        53.83992        -2.79919
C         21.58583        54.38812        -3.09571
C         22.51587        55.48576        -5.06256
C         21.42165        55.26850        -4.18697
C         22.37499        56.35464        -6.23960
C         20.96188        56.83986        -6.60733
C         21.75778        57.16477        -8.91442
C         20.71605        57.11031        -8.02199
C         23.99975         5.20110        -5.57991
C         25.33444         6.97861        -4.52577
C         24.09127         6.46882        -4.97380
C         25.45472         8.28707        -4.01977
C         24.26768         9.21539        -4.10655
C         25.49270        10.57163        -2.25095
C         24.12025        10.14951        -2.86751
C         25.45994        11.99230        -1.66317
C         24.20603        12.80251        -1.53313
C         25.54710        14.82132        -0.85949
C         24.29555        14.22650        -1.12978
C         25.59603        16.16137        -0.33131
C         24.35644        16.86372        -0.06825
C         25.62677        18.85841         0.75097
C         24.35720        18.20276         0.39835
C         25.67161        20.33080         0.80279
C         24.44422        21.02890         0.95204
C         25.71718        23.13552         1.02236
C         24.47743        22.43639         1.14818
C         25.66416        24.61798         1.04133
C         24.51029        25.27458         1.66721
C         25.75267        27.51668         1.62148
C         24.68530        26.65613         2.26572
C         25.75638        28.87965         1.80190
C         24.52790        29.60219         2.11783
C         25.71387        31.84366         1.70909
C         24.50260        31.02377         2.12501
C         25.92246        33.06471         2.67314
C         24.62580        33.86879         2.84426
C         25.80025        36.04530         2.49792
C         24.62748        35.34640         2.64506
C         25.80093        37.50867         2.30415
C         24.48704        38.16678         2.26185
C         25.77072        40.26343         1.51234
C         24.44763        39.61448         1.94823
C         25.80104        41.77390         1.40844
C         24.96950        42.66713         2.00931
C         25.77654        44.59177         0.87620
C         24.72165        44.01004         1.54053
C         25.72037        45.97676         0.48304
C         24.47516        46.67144         0.57090
C         25.61235        48.66729        -0.33040
C         24.43410        48.04475         0.19936
C         25.58394        50.08873        -0.64898
C         24.50173        50.78069        -0.19084
C         25.47714        52.86355        -2.09626
C         24.37179        52.70006        -1.30222
C         25.38049        53.92934        -3.14647
C         23.96772        54.16950        -3.61197
C         24.87517        55.05589        -5.75587
C         23.77966        54.90989        -4.79425
C         24.63297        55.65853        -6.99647
C         23.38550        56.26286        -7.30863
C         23.08312        56.78107        -8.56764
C         26.66283         8.91998        -3.73693
C         27.85149        10.95396        -3.05791
C         26.69140        10.22662        -3.12929
C         28.00979        12.13270        -2.18978
C         26.77262        12.69764        -1.48226
C         28.00692        14.81002        -1.08725
C         26.78071        14.12825        -1.13004
C         28.06046        16.15258        -0.56997
C         26.84626        16.77664        -0.12990
C         28.13548        18.92070         0.32743
C         26.91387        18.11628         0.48461
C         28.12914        20.29015         0.45519
C         26.88831        21.02430         0.67974
C         28.13957        23.15698         0.17901
C         26.89859        22.45464         0.72547
C         28.16452        24.68296         0.37696
C         26.87638        25.40742         0.68864
C         28.22549        27.40872         1.61483
C         26.95521        26.92514         0.89746
C         28.26227        28.92873         1.57168
C         26.99927        29.64962         1.63191
C         28.24647        31.77490         1.44664
C         26.98658        31.02731         1.63238
C         28.29387        33.27202         1.74455
C         27.06791        33.94876         2.22830
C         28.32128        36.07501         2.03310
C         27.05395        35.30535         2.34579
C         28.28219        37.49875         2.60156
C         26.98793        38.21692         2.24501
C         28.25333        40.37617         1.54521
C         27.02362        39.74688         2.21859
C         28.22658        41.62890         0.95721
C         26.92527        42.32499         0.56693
C         28.19272        44.47414         0.46668
C         27.00194        43.83265         0.67347
C         28.19185        45.94403         0.29163
C         26.88244        46.61219         0.04583
C         28.00692        48.55970        -1.02512
C         26.81848        47.96142        -0.38061
C         28.00253        49.97212        -1.41980
C         26.65457        50.65067        -1.59700
C         27.86558        52.44016        -2.80826
C         26.79767        52.19587        -1.73489
C         27.64340        53.25608        -3.94036
C         26.40261        53.84178        -4.24442
C         26.13866        54.46892        -5.46573
C         29.15865        13.01457        -2.32983
C         30.43618        14.97417        -1.58497
C         29.21605        14.22999        -1.64882
C         30.49989        16.22590        -0.97361
C         29.29859        16.82249        -0.48422
C         30.52141        18.99307        -0.38048
C         29.42462        18.14001         0.24204
C         30.58252        20.31892         0.32991
C         29.40339        21.01703         0.51196
C         30.61879        23.13264         0.74398
C         29.42460        22.46308         0.61943
C         30.77362        24.60297         0.38612
C         29.47042        25.40057         0.52694
C         30.69632        27.43123         1.26443
C         29.50246        26.76873         1.11496
C         30.73382        28.87578         1.48557
C         29.47025        29.60318         1.55814
C         30.72061        31.74515         1.63899
C         29.52597        31.05270         1.53850
C         30.76261        33.18467         1.79587
C         29.58683        33.90914         1.96742
C         30.81880        36.09687         2.11182
C         29.58503        35.31885         2.52342
C         30.81174        37.45611         1.96562
C         29.57185        38.25349         2.23463
C         30.78141        40.25147         1.17330
C         29.54981        39.69227         1.77998
C         30.67657        41.51138         0.34808
C         29.43605        42.33277         0.58147
C         30.68192        44.43766         0.21464
C         29.43532        43.71732         0.35041
C         30.83598        45.95907         0.07422
C         29.46403        46.65129        -0.04634
C         30.54913        48.53724        -1.39653
C         29.32518        47.84310        -0.94554
C         30.43240        49.80597        -1.91421
C         29.17244        50.52825        -1.93894
C         29.06909        51.74564        -2.69664
C         31.77317        16.92859        -0.82047
C         33.07368        18.96233        -0.22079
C         31.83259        18.24573        -0.45714
C         33.11299        20.20644         0.33802
C         31.85956        20.88890         0.72328
C         33.18029        23.09994         0.89401
C         31.87182        22.40351         1.01791
C         33.20007        24.50315         0.95699
C         31.89262        25.20930         1.23566
C         33.14131        27.37251         1.10421
C         31.95161        26.71188         1.11428
C         33.19655        28.80754         1.43514
C         31.92791        29.55124         1.50561
C         33.24372        31.73706         1.41585
C         32.00797        31.00280         1.90835
C         33.21708        33.16929         1.49102
C         32.03833        33.85710         1.80843
C         33.20558        36.01243         1.34959
C         32.12276        35.32907         2.18286
C         33.24302        37.50907         1.54943
C         32.05728        38.19302         1.65839
C         33.21911        40.24930         0.73861
C         31.99455        39.61013         1.26739
C         33.17901        41.62905         0.27624
C         31.95201        42.31024         0.39575
C         33.48135        44.59511        -0.71191
C         31.85132        43.71995         0.42301
C         32.91549        45.56740        -1.47337
C         31.80957        46.41751        -1.02742
C         31.71282        47.68795        -1.54070
C         34.41993        20.86679         0.73544
C         35.59567        23.09115         0.60310
C         34.39217        22.38720         0.71505
C         35.63680        24.50950         0.62888
C         34.40509        25.20108         0.79544
C         35.67999        27.41291         0.61950
C         34.37901        26.66786         0.71000
C         35.72210        28.85132         0.93056
C         34.48976        29.55956         1.33441
C         35.67492        31.69442         0.94245
C         34.45602        31.03714         1.21255
C         35.63930        33.18331         0.70793
C         34.47315        33.90878         1.34638
C         35.82194        36.02624         1.51847
C         34.51470        35.26878         1.44415
C         35.73766        37.44456         1.05252
C         34.55062        38.25855         1.50425
C         35.63569        40.18838         0.28817
C         34.43160        39.58184         0.79575
C         35.55412        41.51448        -0.25352
C         34.38453        42.23613        -0.27038
C         34.44723        43.51762        -1.11857
C         36.87573        25.24333         0.56573
C         38.15095        27.38304         0.63915
C         36.93988        26.63591         0.62887
C         38.16193        28.79091         0.66451
C         36.91427        29.53105         0.83195
C         38.14142        31.65224         0.63540
C         36.91253        30.98704         0.82971
C         38.13726        33.12968         0.34665
C         36.99270        33.80320         1.10430
C         38.17543        35.96850         0.62671
C         36.99445        35.29096         0.94657
C         38.12829        37.37454         0.45311
C         36.89807        38.08604         0.59251
C         36.83190        39.48107         0.24289
C         39.37122        29.53082         0.59287
C         40.61026        31.68659         0.49558
C         39.36876        30.93490         0.56790
C         40.65275        33.05150         0.51743
C         39.44952        33.84937         0.54773
C         39.42805        35.21867         0.53687
O         24.57141        52.15788        -0.02664
O         11.31015        34.73740        -1.68171
O         18.69951        15.57200        -2.64810
O         31.84601        21.42809         2.09412
O         21.95023        57.72561        -5.96720
O         16.03660        39.94403         3.80747
O         13.13786        27.82882         3.00339
O         20.24413        46.60475         2.52056
O         23.92579        33.43121         4.06194
O         25.90355        25.13532        -0.38812
O         23.50485        39.93971         0.83643
O          9.72653        29.54351         1.97974
O         28.76699        25.37687        -0.77291
O          9.70154        37.36369         1.81744
O         26.34721        18.18321         1.85119
O         22.66075        26.97382         3.66282
O         20.67717        25.13418         0.12414
O         20.06409        43.98812         0.10278
O         24.17868        42.29267         3.09980
O          9.91457        31.98185        -2.17469
O         13.55083        33.12723        -0.47556
O         34.86313        27.16670        -0.60164
O         28.14769        32.76871         0.34025
O         34.02759        29.05594         2.67249
O         24.69064        11.94516        -0.41001
O         10.72110        34.50242         1.45197
O         15.43176        19.65008         2.10272
O         28.90852        46.79224         1.30388
O         33.04672        44.43958         0.61439
O         27.70749        11.85334        -0.74295
O         29.78207        39.33297         3.22037
O         12.58606        37.79895         2.86022
O         18.31423        41.35421         3.85262
O         28.45394        47.61371        -2.11259
O         17.56101        18.01186         2.03635
O         29.81972        17.83875         1.60779
H         29.04326        17.46386         2.07525
O         20.62635        33.21795         0.89973
H         20.94184        34.09697         0.59547
O         23.22423        35.84635         0.82477
H         23.91180        36.42249         0.42409
O         29.61436        35.15730         3.96636
H         29.17467        35.95287         4.36510
O         12.68880        27.37969        -0.61704
H         12.22559        26.80260        -1.26082
O         23.20040        44.94594         3.20316
H         23.90709        45.55455         3.50128
O         27.28380        52.70664        -0.48058
H         27.19577        53.68243        -0.49746
O         20.27084         8.03021        -2.73407
H         21.04192         8.32377        -2.20001
O         36.10319        36.08914         3.01584
H         36.95745        36.56695         3.11218
O         15.07058        38.02855         0.14493
H         14.29820        38.39448        -0.35878
O         37.19717        33.51548         2.51425
H         36.68355        34.18390         3.02908
O         14.13547        34.82215         3.39628
H         13.74219        35.61949         3.81408
O         13.41702        23.94482        -1.27321
H         14.36728        23.92031        -1.55511
O         23.57323        12.08879        -4.37499
H         22.75225        12.48174        -4.76887
O         37.90093        33.24838        -1.10180
H         38.64276        32.79467        -1.55533
O         25.72941         9.71243        -1.09572
H         26.37941        10.18197        -0.52228
O         31.51952        24.94623         2.61748
H         32.26765        25.20022         3.19711
O         31.43193        46.45136         1.29675
H         30.70231        46.52722         1.95463
O         13.26243        16.54271        -0.86186
H         13.41700        16.96313        -1.73224
O         26.19147        50.21753        -2.91498
H         26.31676        49.24607        -2.97859
O         32.15312        30.97653         3.37443
H         32.92143        30.38018         3.55832
O         13.38634        32.17433         3.15462
H         13.55439        33.13711         3.31114
O         34.84726        38.58363         2.91907
H         35.00554        37.71917         3.37087
O         27.01697        40.20715         3.59077
H         27.93735        40.12393         3.93002
O         26.31568        32.53176         3.95332
H         25.53674        32.62640         4.55363
O         30.55562        41.04701        -1.05650
H         31.29742        40.42547        -1.22166
O         24.56022         9.92489        -5.33691
H         24.01885        10.75092        -5.37381
O         11.86000        30.11623         3.43131
H         10.92558        30.40866         3.50681
O         18.36661        24.84535        -0.75051
H         19.31128        24.78175        -1.03642
O         18.04682        20.37436         2.91922
H         17.27250        19.79278         3.11902
O         15.73696        34.24176         0.16208
H         15.13182        34.07960        -0.60287
O         25.20896        26.39254         3.61188
H         24.42089        26.30096         4.19879
O         14.26209        44.17881         3.34822
H         14.21986        45.15192         3.46237
O         35.33956        33.39361        -0.70424
H         36.15941        33.19227        -1.22074
O         25.73905        55.17578        -2.41147
H         25.59057        55.92616        -3.02701
O         17.48314        33.37152         4.13253
O         22.98465        50.66144         1.62706
H         23.31794        51.58365         1.69408
O         28.43098        36.22512         0.60038
H         28.45922        35.33263         0.19286
O         35.50395        20.36867        -0.04914
H         35.38309        20.67024        -0.97242
O         14.98200        30.79445         0.12915
H         14.97173        31.66484        -0.32482
O         20.64094        48.06272        -1.39182
H         19.83268        48.43176        -1.81021
O         25.93585        39.74411         0.15509
H         25.05458        39.83073        -0.27928
O         12.63332        39.14658        -0.50813
H         12.59173        39.99503        -0.99987
O         16.08930        23.52630        -1.17353
H         16.92499        24.05505        -1.29381
O         22.52478        43.36836         0.02764
H         21.68783        43.14940        -0.44652
O         32.50812        35.36767         3.58235
H         31.71774        35.08551         4.10097
O         17.00039        13.51695        -0.17184
H         16.20887        12.94030        -0.12448
O         17.73723        55.90808        -4.02162
H         17.59142        55.18571        -4.66577
O         31.20630        24.66600        -0.98525
H         30.38784        24.71658        -1.53492
O         25.41739        32.37439         0.39396
H         26.28422        32.60430        -0.02438
O         28.06173        22.93627        -1.25875
H         27.37603        23.54844        -1.60556
O         23.40785         9.38378        -1.87168
H         24.03169         9.25201        -1.11429
O         34.22992        43.16702        -2.49533
H         33.32649        42.79932        -2.58427
O         26.73335        42.05961        -0.84777
H         26.65665        41.07875        -0.93248
O         32.80239        35.87601        -0.06007
H         33.34087        35.16666        -0.47502
O         20.72328        55.00901        -0.97022
H         20.06821        54.78845        -0.27461
O         13.19379        24.14926         2.38789
H         13.13157        24.90605         3.00881
O         20.65791        23.04563         3.21377
H         20.40795        22.12453         3.44443
O         28.09625        26.98078         2.99757
H         28.84337        27.35182         3.51196
O         26.99482        27.52205        -0.41469
H         26.45552        26.95164        -1.00791
O         28.26325        37.40229         4.05566
H         28.64426        38.24454         4.39811
O         20.86013        12.29967        -4.96245
H         20.11393        12.92999        -5.06904
O         30.09489        19.25309        -1.74990
H         30.72810        19.88008        -2.15664
O         20.97894        36.07093         4.65838
H         20.94556        35.15420         5.00670
H          6.08361        31.37766        -2.59919
H          6.47390        33.71628        -3.21249
H          7.76235        27.23487        -0.43633
H          6.63239        29.36356        -1.28327
H          7.38087        35.85313        -2.28798
H          7.98290        37.80248        -0.84033
H          9.90379        22.94557         0.38342
H          8.81921        25.20286        -0.08505
H          8.87216        39.96158         0.31300
H         10.02963        42.13003         0.65811
H         12.31984        18.64835        -0.21857
H         11.09802        20.75086         0.05507
H         11.20353        44.24065         0.64421
H         12.39744        46.38282         0.53448
H         14.65525        14.70072        -1.43798
H         14.12555        16.39159         0.99347
H         13.61821        48.47611         0.25770
H         14.83465        50.45911        -0.44690
H         17.13208        11.12556        -3.97510
H         15.95106        12.97720        -2.90897
H         15.97276        52.31883        -1.47531
H         17.03745        54.10753        -2.67273
H         19.46530         6.99244        -5.36297
H         18.25811         9.03381        -4.45175
H         19.17897        56.60275        -2.73230
H         18.85347        56.83398        -5.89826
H         22.74387         3.72376        -6.54706
H         20.64594         5.01684        -6.27471
H         21.55332        57.42720        -9.96256
H         19.67967        57.24110        -8.36631
H         24.91067         4.59784        -5.70520
H         26.22866         6.33952        -4.59522
H         25.43115        55.66413        -7.75428
H         23.85575        56.77721        -9.35011
H         27.61960         8.41716        -3.94894
H         28.72784        10.63197        -3.64153
H         28.44851        53.31838        -4.69130
H         26.91954        54.48916        -6.24160
H         30.01308        12.68392        -2.93842
H         31.34903        14.52246        -2.00071
H         31.31398        50.29907        -2.35080
H         29.90666        52.01152        -3.36138
H         32.69928        16.35542        -0.98319
H         34.02342        18.44984        -0.44302
H         33.30477        45.73555        -2.48926
H         32.51783        48.05259        -2.19872
H         34.63012        20.55627         1.79802
H         36.53140        22.52498         0.48323
H         36.45966        41.93924        -0.71334
H         35.49709        43.90985        -1.05830
H         37.81303        24.66950         0.50407
H         39.10957        26.84426         0.59226
H         39.03527        37.92258         0.16111
H         37.73831        39.97453        -0.13821
H         40.32750        28.99096         0.52385
H         41.55020        31.11547         0.46645
H         41.62423        33.56889         0.51830
H         40.37016        35.78887         0.53240
