         762
 CSIRO Nanostructure Databank - Neutral Graphene Oxide Data Set
C         26.30616        26.15752        -5.72451
C         25.63476        27.12471        -6.47060
C         25.13741        28.35246        -4.43843
C         25.02905        28.20419        -5.82688
C         24.40634        29.41233        -3.71566
C         23.59385        30.40752        -4.44385
C         23.63763        31.97284        -2.51749
C         23.17969        31.54373        -3.85897
C         23.61457        33.43139        -2.26720
C         22.48352        34.15253        -2.65000
C         23.50879        36.20445        -1.85740
C         22.41237        35.52046        -2.42604
C         23.33664        37.59849        -1.46016
C         22.20609        38.34152        -1.74009
C         23.06907        40.39120        -0.68814
C         22.08680        39.71347        -1.38608
C         23.15632        41.84637        -0.72110
C         21.97548        42.62214        -1.01957
C         23.26960        44.69739        -1.22673
C         21.99903        43.97735        -1.11413
C         23.28085        46.18410        -1.09245
C         22.12374        46.90275        -1.44313
C         23.17599        48.97999        -0.81208
C         22.07988        48.29312        -1.31120
C         27.47206        24.00075        -4.12726
C         27.09455        25.23227        -3.54769
C         26.44640        26.28125        -4.33236
C         26.29072        27.74118        -2.31302
C         25.91772        27.43550        -3.67377
C         26.06225        29.02969        -1.77822
C         24.93293        29.78921        -2.33161
C         25.59661        31.83570        -0.78678
C         24.62114        31.13998        -1.75950
C         25.85022        33.28603        -1.19840
C         24.74787        34.06900        -1.68129
C         25.89300        36.22389        -1.08330
C         24.69546        35.49075        -1.54711
C         25.72045        37.62212        -0.57608
C         24.33841        38.18005        -0.55414
C         25.37724        40.32776         0.43126
C         24.17673        39.61886        -0.11291
C         25.45042        41.82216         0.29664
C         24.35228        42.49823        -0.43167
C         25.76460        44.62580        -0.43892
C         24.53056        43.88575        -0.86074
C         25.67191        46.12816        -0.32646
C         24.41460        46.87245        -0.61195
C         25.50053        49.03490         0.03715
C         24.36476        48.29619        -0.44829
C         25.45546        50.40759         0.41027
C         28.36536        23.19440        -2.01824
C         28.15405        23.02996        -3.39842
C         27.79875        24.33347        -1.42314
C         27.28293        25.41731        -2.15555
C         27.87014        27.28060        -0.34087
C         27.01305        26.73205        -1.51267
C         27.88248        28.77504        -0.09828
C         26.87284        29.62442        -0.76575
C         27.98882        31.68980         0.05258
C         26.87227        31.03101        -0.52884
C         28.07787        33.15386         0.04709
C         27.08823        33.92475        -0.76241
C         28.06760        36.11726         0.24455
C         27.12015        35.47152        -0.66869
C         27.94954        37.46531         0.61539
C         26.76321        38.25692         0.27258
C         27.69286        40.30096         1.43686
C         26.63351        39.56710         0.64421
C         27.83255        41.77261         1.06718
C         26.75716        42.50263         0.52690
C         27.92976        44.63744         0.81564
C         26.83343        43.91665         0.32343
C         28.00036        46.07254         0.74944
C         26.72898        46.80310         0.47809
C         27.98907        49.02774         0.52722
C         26.69470        48.29312         0.49130
C         27.90258        50.50565         0.78652
C         26.54937        51.07604         0.91512
C         30.51061        20.20896        -0.92383
C         29.51759        20.94938        -1.47623
C         30.45400        23.00912        -0.36773
C         29.48970        22.41901        -1.37903
C         30.22288        24.27943         0.41176
C         29.03896        25.15015         0.19496
C         30.31313        27.22125         0.48795
C         29.04205        26.50995         0.16432
C         30.38354        28.71579         0.55719
C         29.10325        29.47716         0.44485
C         30.28165        31.58895         1.01624
C         29.16821        30.95876         0.44996
C         30.03859        32.99499         1.56313
C         29.11761        33.80661         0.66102
C         30.12781        35.90273         1.67043
C         29.32782        35.30932         0.52431
C         30.13998        37.39217         1.81473
C         29.01413        38.16981         1.27698
C         30.17896        40.28427         1.82517
C         29.01176        39.56364         1.45115
C         30.18816        41.70376         1.84970
C         29.03442        42.43229         1.46203
C         30.25073        44.67989         1.91052
C         29.00099        43.90989         1.52287
C         30.34647        46.10854         1.51854
C         29.14350        46.78673         1.10071
C         30.36065        49.03118         1.38025
C         29.28531        48.23743         0.67051
C         30.38297        50.41774         1.33943
C         29.08698        51.21530         1.41840
C         30.43461        53.24400         0.86620
C         29.23692        52.62798         0.92215
C         32.93370        18.62654        -0.37983
C         32.84277        20.02065        -0.01559
C         31.65462        20.79442        -0.24048
C         32.72671        22.84986         0.63701
C         31.57484        22.15655         0.13573
C         32.72661        24.22132         0.86703
C         31.44767        24.94150         0.95621
C         32.63750        27.17931         1.51840
C         31.39822        26.43184         1.17099
C         32.65072        28.66792         1.51890
C         31.54479        29.40736         1.18883
C         32.64884        31.51808         1.80172
C         31.49793        30.86157         1.36334
C         32.61023        32.93926         2.22424
C         31.33559        33.68803         2.04578
C         32.62167        35.93468         2.33136
C         31.33716        35.18524         2.18881
C         32.68530        37.31221         2.22284
C         31.41498        38.08096         2.21097
C         32.76103        40.26098         2.16745
C         31.42093        39.57251         2.19849
C         32.76984        41.71612         1.94712
C         31.46999        42.39934         2.18870
C         32.81169        44.57785         1.98192
C         31.50975        43.91093         2.19222
C         32.78896        46.05419         2.05199
C         31.53691        46.78133         1.71996
C         32.89488        48.95978         1.61079
C         31.56552        48.26092         1.73046
C         32.87375        50.37259         1.15348
C         31.62753        51.14734         1.30735
C         32.94739        53.23948         1.09206
C         31.68353        52.53327         1.09820
C         32.98902        54.66155         1.08888
C         35.27725        18.47677         0.50087
C         34.06090        17.89675        -0.17958
C         35.27119        19.98134         0.42693
C         34.06043        20.66615         0.40609
C         35.26421        22.84589         1.05567
C         33.98292        22.08741         0.82916
C         35.25752        24.32846         1.09296
C         33.96884        25.00693         0.97191
C         35.19313        27.13091         1.72637
C         33.94741        26.49253         1.28570
C         35.13312        28.51512         2.21814
C         33.83507        29.27644         2.15575
C         35.18120        31.47055         2.12105
C         33.86848        30.78218         2.21226
C         35.18895        32.93636         2.35190
C         33.89669        33.67223         2.54465
C         35.17872        35.85749         2.14273
C         33.90858        35.21515         2.71024
C         35.18158        37.27263         1.95212
C         33.95296        38.03313         2.05422
C         35.14272        40.18720         1.58066
C         33.97200        39.44892         1.93200
C         35.19184        41.60780         1.59032
C         33.97118        42.39229         1.81189
C         35.27158        44.56862         1.78697
C         33.99381        43.86209         1.85956
C         35.33361        45.94570         1.74780
C         34.11413        46.76825         1.88492
C         35.40432        48.88472         1.30655
C         34.09632        48.12783         1.19971
C         35.44488        50.30720         1.33175
C         34.19804        51.07920         1.10868
C         35.40097        53.21413         1.44984
C         34.18998        52.54469         1.23323
C         35.41212        54.64546         1.41572
C         34.17871        55.33742         1.22085
C         37.87575        15.83040        -0.40067
C         36.70530        16.46551         0.02735
C         37.62186        18.65149        -0.52795
C         36.56177        17.85983        -0.00712
C         37.75901        20.07997        -0.24796
C         36.58052        20.67928         0.46602
C         37.67567        23.00060         0.25536
C         36.55399        22.15128         0.74281
C         37.67062        24.42231         0.73420
C         36.41852        25.05676         1.22201
C         37.66237        27.19666         1.72616
C         36.41401        26.47468         1.56649
C         37.68419        28.59391         1.86213
C         36.43587        29.31262         2.18577
C         37.62704        31.52032         1.91215
C         36.37796        30.79149         2.05578
C         37.63447        32.93322         1.95710
C         36.44241        33.69576         2.13608
C         37.68087        35.91508         2.20839
C         36.39267        35.11300         2.08246
C         37.62226        37.27223         1.54190
C         36.39966        37.95804         1.58547
C         37.64997        40.16617         1.10918
C         36.34376        39.40195         1.24203
C         37.67499        41.63759         1.28936
C         36.45256        42.30433         1.46638
C         37.85113        44.47599         1.54584
C         36.51175        43.75147         1.76677
C         37.88072        45.96929         1.47135
C         36.59648        46.71005         1.63700
C         37.83869        48.84027         1.18154
C         36.58984        48.15797         1.30129
C         37.88547        50.25804         1.34947
C         36.65637        50.98291         1.48671
C         37.93442        53.15014         1.84081
C         36.59912        52.41744         1.98067
C         37.90709        54.61168         1.52847
C         36.63398        55.36198         1.46689
C         37.94408        57.42532         1.46985
C         36.75832        56.77448         1.66127
C         40.23977        14.61957        -1.71876
C         40.15182        15.97763        -1.51174
C         38.86766        16.56447        -1.08234
C         40.44368        19.05946        -1.29205
C         38.60895        17.93819        -1.24475
C         40.28738        20.29826        -0.59869
C         38.95678        20.81780        -0.31620
C         40.25527        23.02341         0.19099
C         38.95872        22.28892        -0.08096
C         40.20323        24.34771         0.80956
C         38.95812        25.00926         1.17085
C         40.21853        27.17080         1.79250
C         38.92462        26.41997         1.73271
C         40.18689        28.66733         1.81027
C         38.88486        29.37338         1.79265
C         40.08193        31.49450         1.41564
C         38.85620        30.78083         1.74839
C         40.11710        32.89599         1.34018
C         38.94129        33.63024         1.86550
C         40.14514        35.81283         1.33339
C         38.96480        35.13011         1.91738
C         40.10495        37.23419         1.18270
C         38.86502        37.92293         1.28146
C         40.20661        40.11679         1.09383
C         38.89544        39.38984         1.33795
C         40.19520        41.60336         0.92721
C         38.92504        42.33956         1.10051
C         40.14857        44.44805         0.48122
C         38.98658        43.72978         0.99480
C         40.18080        45.86523         0.43633
C         38.90089        46.64642         0.57569
C         40.26258        48.77147         0.79942
C         39.04693        48.11517         0.91717
C         40.34535        50.20662         0.98271
C         39.15215        50.91165         1.32113
C         40.49662        53.08411         1.37223
C         39.21368        52.34737         1.65595
C         40.39044        54.52835         0.94935
C         39.09974        55.26565         0.90430
C         40.39418        57.47751         0.70519
C         39.03710        56.78111         0.65276
C         40.42674        58.87482         0.61062
C         42.67912        14.56590        -1.68853
C         41.48718        13.91842        -1.79965
C         42.71772        16.03064        -1.69575
C         41.40054        16.78931        -1.61447
C         42.63653        18.67992        -0.32996
C         41.48745        18.19042        -1.09627
C         42.72765        20.14337        -0.07833
C         41.50093        20.90623        -0.15636
C         42.72661        22.89088         0.62054
C         41.53205        22.27115         0.26903
C         42.71173        24.31262         1.05601
C         41.45623        25.09603         0.84401
C         42.75330        27.23899         1.39815
C         41.45402        26.52638         1.24440
C         42.62662        28.67979         1.18513
C         41.39186        29.36152         1.32136
C         42.37221        31.45493         0.52886
C         41.26766        30.75743         1.09012
C         42.46196        32.88675         0.58836
C         41.32255        33.61279         1.02756
C         42.51768        35.81101         0.76107
C         41.31740        35.08008         1.06536
C         42.52222        37.19453         0.54639
C         41.30920        37.94085         0.77831
C         42.41093        39.98139        -0.15854
C         41.34209        39.32963         0.64285
C         42.34820        41.45794        -0.45500
C         41.35096        42.29590         0.27112
C         42.43066        44.42529        -0.47822
C         41.29069        43.75037         0.00168
C         42.51726        45.83378        -0.34600
C         41.37100        46.53964         0.12294
C         42.77321        48.67530         0.18050
C         41.48137        47.97188         0.49640
C         42.87205        50.19474         0.39895
C         41.56372        50.91098         0.70597
C         42.75054        53.06276         0.33106
C         41.63511        52.33395         0.77594
C         42.89591        54.51253         0.55300
C         41.65584        55.31032         0.89785
C         42.83721        57.43186         0.37599
C         41.61160        56.76204         0.62950
C         42.82970        58.84137         0.33490
C         41.64218        59.55077         0.47873
C         45.15851        16.39487        -2.02874
C         43.98220        16.72914        -1.32843
C         45.24582        18.56084        -0.06759
C         43.96048        17.86844        -0.42619
C         45.19174        19.96802         0.59074
C         43.93538        20.76319         0.25679
C         45.20894        22.86098         0.70722
C         43.97969        22.18030         0.54761
C         45.29407        24.22002         1.40208
C         43.98046        25.05237         1.38512
C         45.20153        27.33449         1.07927
C         43.94789        26.55911         1.28479
C         45.08228        28.76669         0.57063
C         43.70307        29.35079         0.53425
C         45.27471        31.71150        -0.24398
C         43.41710        30.62230         0.04321
C         45.11425        33.00388         0.26873
C         43.79657        33.56990         0.63835
C         45.04726        35.82596         0.58658
C         43.79647        35.09563         0.83352
C         44.97130        37.21300         0.24696
C         43.75002        37.89315         0.18995
C         44.86966        39.99188        -0.56390
C         43.72278        39.28668        -0.23000
C         44.83569        41.38658        -1.07317
C         43.54809        42.16502        -1.04220
C         44.85217        44.40308        -1.28024
C         43.49005        43.69249        -1.28860
C         44.87383        45.77962        -1.27424
C         43.72091        46.55657        -0.77107
C         44.86933        48.72129        -1.27202
C         43.78302        47.93669        -0.62776
C         44.86406        50.21751        -1.23724
C         43.67256        50.93056        -0.66446
C         45.02369        53.11100        -0.81553
C         43.75623        52.41508        -0.52003
C         45.10578        54.52447        -0.62798
C         44.01644        55.25365        -0.05697
C         45.20200        57.33326        -0.44490
C         44.03443        56.66269         0.00329
C         46.35544        17.03652        -1.80248
C         47.75532        18.80122        -0.60495
C         46.49257        18.04591        -0.74614
C         47.75426        19.97291         0.35583
C         46.46230        20.76794         0.33813
C         47.70749        22.91206         0.40767
C         46.45877        22.15392         0.49981
C         47.71848        24.34362         0.48819
C         46.53045        25.05151         1.02163
C         47.66507        27.25846         0.33395
C         46.49401        26.57331         0.91409
C         47.60083        28.68918        -0.06637
C         46.29530        29.42866        -0.08397
C         47.60301        31.60295         0.28518
C         46.39943        30.92249        -0.00854
C         47.58022        33.01968         0.44938
C         46.32168        33.70614         0.54390
C         47.52325        35.87911         0.71883
C         46.26234        35.13217         0.65834
C         47.48906        37.33361         0.31991
C         46.21038        37.88136        -0.19962
C         47.43667        40.13745        -0.65282
C         46.18157        39.32632        -0.65438
C         47.43653        41.47507        -0.97561
C         46.13550        42.12120        -1.33740
C         47.42651        44.31823        -1.66487
C         46.09385        43.61093        -1.55175
C         47.41920        45.79606        -1.86862
C         46.10273        46.51900        -1.72737
C         47.42965        48.71073        -1.38231
C         46.14901        48.01299        -1.62352
C         47.38215        50.15925        -1.13086
C         46.14720        50.94641        -1.27223
C         47.43934        53.06335        -1.34068
C         46.19256        52.35158        -1.11025
C         47.44666        54.47999        -1.45263
C         46.28400        55.22909        -1.02228
C         46.30055        56.63577        -0.91450
C         50.19209        18.87376        -0.70660
C         48.94465        18.26938        -1.03257
C         50.22816        20.13931        -0.13677
C         48.98672        20.80934         0.15710
C         50.18930        22.92849        -0.05682
C         48.92965        22.19981         0.21757
C         50.14506        24.42448        -0.08490
C         48.86940        25.11016         0.22308
C         50.09487        27.29422        -0.14979
C         48.84441        26.54820         0.17254
C         50.11706        28.76940         0.05765
C         48.86437        29.48031         0.00997
C         50.08007        31.63223         0.11027
C         48.83831        30.85984         0.19571
C         50.08670        33.07540         0.41217
C         48.82035        33.76919         0.49646
C         50.00252        35.93502         0.46382
C         48.79788        35.16423         0.57519
C         49.99952        37.31387         0.35577
C         48.76112        37.98022        -0.09600
C         49.96200        40.22813        -0.38815
C         48.73152        39.43168        -0.49354
C         49.94453        41.56309        -0.76605
C         48.68499        42.23698        -1.05313
C         49.92251        44.36063        -1.35900
C         48.69275        43.60860        -1.33591
C         49.93453        45.79069        -1.47680
C         48.72706        46.59859        -1.94310
C         49.89001        48.69550        -1.29130
C         48.67248        48.02785        -1.41521
C         50.02013        50.19539        -1.18196
C         48.69327        50.92992        -1.16142
C         49.75623        52.98227        -2.15365
C         48.63806        52.34528        -1.57758
C         49.71989        54.37776        -2.33061
C         48.61274        55.11538        -1.93341
C         52.71943        20.15382         0.23927
C         51.49456        20.83480         0.09465
C         52.67042        22.95311         0.46215
C         51.48438        22.24261         0.20379
C         52.62609        24.44817         0.69384
C         51.40242        25.12632         0.15175
C         52.66000        27.28281         0.34416
C         51.43271        26.55376        -0.03797
C         52.55136        28.70870         0.65076
C         51.31596        29.42629         0.28603
C         52.64572        31.62256         0.49383
C         51.39942        30.88246         0.17251
C         52.58906        33.08441         0.54462
C         51.29648        33.74664         0.48476
C         52.55283        35.99129         0.53654
C         51.28114        35.21537         0.38039
C         52.52216        37.46681         0.63310
C         51.22069        38.11799         0.51195
C         52.49725        40.22972        -0.18760
C         51.19724        39.61856         0.14143
C         52.42626        41.55747        -0.73135
C         51.20815        42.25741        -0.89836
C         52.38087        44.38886        -1.36790
C         51.17487        43.67027        -1.21138
C         52.38663        45.79734        -1.48173
C         51.14243        46.48687        -1.43667
C         52.36405        48.65099        -1.89202
C         51.20300        47.97067        -1.18236
C         52.30435        50.02008        -2.29418
C         50.98749        50.70721        -2.24167
C         52.13020        52.78741        -3.12948
C         50.89370        52.15930        -2.65296
C         53.89454        20.85375         0.47872
C         55.14362        22.99609         0.87370
C         53.90299        22.26116         0.60793
C         55.09605        24.47074         0.88169
C         53.91219        25.13503         0.19621
C         55.10297        27.37521         0.58617
C         53.87043        26.63421         0.43681
C         55.11490        28.75558         0.70186
C         53.84778        29.49344         0.82900
C         55.13596        31.70742         0.49049
C         53.83244        30.95148         0.60839
C         54.99818        33.07009         1.15750
C         53.73471        33.78967         0.88958
C         54.97318        36.05701         1.34073
C         53.72156        35.25609         1.08448
C         54.98190        37.59702         1.18246
C         53.70944        38.18478         0.56537
C         55.00493        40.06776        -0.45044
C         53.70267        39.52558         0.05008
C         54.98791        41.48271        -0.93893
C         53.67923        42.19566        -1.16473
C         54.90577        44.42114        -1.55152
C         53.65411        43.66958        -1.48881
C         54.86410        45.80245        -1.84094
C         53.59629        46.51240        -1.77868
C         54.79270        48.61611        -2.40445
C         53.54604        47.90706        -2.04652
C         54.75088        50.07889        -2.76282
C         53.41366        50.71259        -2.80945
C         53.28598        52.07458        -3.24529
C         57.59486        23.12388         1.13161
C         56.36728        22.39477         1.09520
C         57.66017        24.49256         0.95110
C         56.39178        25.24153         0.93485
C         57.63603        27.39050         0.68655
C         56.39046        26.62779         0.32388
C         57.59855        28.79247         0.83349
C         56.35276        29.51145         0.79530
C         57.56631        31.62648         1.12962
C         56.35477        30.90970         0.89577
C         57.54017        33.14018         0.96331
C         56.25703        33.83936         1.43644
C         57.43976        36.03098         1.24874
C         56.26504        35.33098         1.35699
C         57.46257        37.45209         0.89096
C         56.29021        38.12524         0.64641
C         57.44961        40.39598         0.41162
C         56.37940        39.40352        -0.16225
C         57.58108        41.60607        -0.61003
C         56.23803        42.30869        -0.81854
C         57.42626        44.40322        -1.72900
C         56.18695        43.75055        -1.26026
C         57.27194        45.66742        -2.48197
C         56.04100        46.44425        -2.29086
C         57.16210        48.49121        -3.43131
C         55.95819        47.79711        -2.85716
C         57.08085        49.96759        -3.61646
C         55.94371        50.66261        -3.43611
C         60.13971        24.60584         0.72523
C         58.90247        25.24540         0.78266
C         60.09431        27.43669         0.72717
C         58.86440        26.69027         0.74560
C         60.05851        28.85941         0.78461
C         58.81782        29.52558         0.97854
C         60.10473        31.57857         1.58724
C         58.77955        30.94205         1.19163
C         60.04017        33.10568         1.72254
C         58.73222        33.83101         1.61069
C         60.01400        36.06540         1.40296
C         58.71602        35.33449         1.55036
C         59.97953        37.49930         0.99305
C         58.74595        38.17154         0.77457
C         59.94407        40.25544         0.91382
C         58.73815        39.59360         0.65562
C         60.01784        42.40040        -0.01987
C         58.77582        42.51390        -0.81855
C         59.89084        44.54438        -1.87684
C         58.65440        43.85213        -1.49343
C         59.83038        45.73130        -2.72547
C         58.49920        46.35136        -3.00019
C         59.61205        48.21036        -4.18316
C         58.53221        47.86936        -3.17945
C         61.34019        25.34228         0.65175
C         61.32549        26.72220         0.66443
C         61.22285        29.68508         0.49308
C         61.21977        31.01192         0.74338
C         61.26463        33.91801         1.53892
C         61.24559        35.24663         1.30389
C         61.18456        38.21524         1.06660
C         61.17100        39.60243         1.06367
C         61.12137        43.15956        -0.27754
C         61.08641        44.15015        -1.30939
C         60.91283        46.31456        -3.33114
C         60.74983        47.47768        -4.18264
O         59.35908        35.93047         2.72362
O         37.43946        44.01806         2.86374
O         40.17769        52.68521         2.72280
O         43.90392        34.19217         1.97231
O         38.88925        25.28112         2.64940
O         26.31946        47.50484         1.70031
O         41.39130        26.17307        -0.20438
O         55.54934        25.10409         2.11594
O         23.80644        38.50020         0.76447
O         48.06403        50.64681         0.12175
O         31.45485        43.15983         3.44248
O         56.24462        47.80242        -4.32249
O         42.10378        16.64007        -2.89910
O         33.53402        50.59412        -0.14158
O         47.48996        36.97915         1.72207
O         59.97215        41.64834         1.14275
O         50.40567        51.04512        -3.51880
O         53.61095        42.63471        -2.56480
O         41.79343        40.50485        -1.41020
O         50.83963        31.33966        -1.11159
O         24.15759        44.14366        -2.24643
O         39.32096        34.34230         3.11295
O         46.21063        38.20764        -1.61719
O         28.04165        29.02358         1.34429
O         40.42731        27.87440         3.04293
O         42.59403        54.93224         1.94270
O         54.99480        40.38061        -1.89626
O         45.38467        28.47022         1.98466
O         26.57182        26.69548        -0.11730
O         35.86428        28.79133         3.43682
O         39.59938        54.58624        -0.30254
O         37.58539        46.55859         2.74913
O         46.08573        17.59129         0.63706
O         44.22540        31.14664        -0.95915
O         57.69403        45.58013        -3.92264
O         23.75941        28.94032        -2.49206
O         30.70768        23.15372        -1.81771
O         34.56804        33.10452         3.71287
O         58.42960        41.39054        -1.74924
O         52.11916        35.59562        -0.80209
O         34.54429        22.26785         2.18623
O         39.65773        22.96983        -1.17474
O         30.51918        24.18159         1.83435
O         34.01549        26.03757        -0.11547
O         29.21036        44.44458         2.89173
O         50.79787        26.91102        -1.35417
O         38.13001        54.13127         2.91450
O         36.98588        21.23538         1.78807
O         39.40439        18.66515        -2.14078
O         43.00999        51.73045        -1.65916
O         51.03412        39.17639         1.52977
O         26.28748        45.48829        -1.49985
O         57.59847        33.36696        -0.43616
O         42.55564        48.07376         1.51135
O         32.05280        40.01833         3.44232
O         46.79669        28.85006        -1.32100
O         30.10234        35.36888         3.01165
O         44.43635        49.50099        -2.45342
O         53.03777        29.08357         1.99011
O         33.51955        46.64078         3.19375
O         37.43453        24.08011        -0.68493
O         41.33240        42.11656         1.73079
O         46.06316        42.67384        -2.68584
O         59.18658        33.37920         2.90781
O         31.67949        33.10728         3.35729
O         43.06359        17.77248         0.72538
O         46.88390        25.90263         2.16855
O         26.20102        37.39358        -1.94479
O         47.42111        44.90012        -3.02830
O         43.95916        41.47387        -2.25091
O         28.11839        49.98350        -0.57630
O         55.13008        49.63065        -1.39825
O         50.15307        23.62538        -1.35510
O         24.99687        41.18619         1.56874
O         39.72382        39.82497         2.45379
O         32.30470        48.80105         2.90617
O         54.07382        35.68701         2.44799
O         56.14092        43.35381         0.19997
O         27.85600        24.43220        -0.02170
O         23.22273        31.19940        -1.32809
O         33.58108        29.97384         3.41029
O         27.76183        34.76488        -1.79291
O         55.52725        33.21244         2.52102
O         36.92464        39.72803        -0.08243
O         48.86086        38.33017        -1.51171
O         45.93988        47.34288        -2.92898
O         30.42935        37.70721         3.21771
O         43.12086        24.53953         2.45154
O         31.71972        26.72316         2.57090
O         30.79002        28.00804        -0.67500
O         28.75318        51.28708         2.83798
H         29.51375        51.68513         3.31150
O         56.93779        38.94572        -1.41403
H         56.52079        39.46136        -2.14597
O         51.57698        48.03659         0.24623
H         51.56664        48.99860         0.48590
O         33.90768        47.83102        -0.21449
H         33.86560        48.69988        -0.68372
O         50.66489        50.54241         0.08877
H         49.95046        50.53672         0.76845
O         43.71905        50.35569         1.57641
H         43.36398        49.74802         2.26614
O         35.17978        18.12350         1.92215
H         34.53302        18.72954         2.34200
O         29.23268        32.76072         2.74989
H         29.85385        32.63366         3.50537
O         56.43234        26.39468        -1.13609
H         56.58913        27.25935        -1.57341
O         45.11301        19.76229         2.02850
H         46.03569        19.71482         2.37346
O         29.84531        48.10257        -0.67957
H         29.59317        48.92164        -1.17053
O         52.57636        24.67839         2.13559
H         51.96012        24.03385         2.54190
O         55.34482        31.98951        -0.92542
H         56.21398        32.50313        -0.98334
O         36.33576        52.29030         3.40728
H         36.81288        53.03015         3.85178
O         38.59566        56.93745        -0.72976
H         39.04388        56.23083        -1.24959
O         56.96350        40.92714         1.64455
H         57.69887        41.37463         2.11313
O         48.99708        46.82487        -3.35514
H         48.58275        46.08118        -3.85402
O         54.02129        24.89554        -1.21946
H         54.84292        25.35005        -1.53079
O         27.25382        40.29076         2.82755
H         26.34313        40.67333         2.84244
O         43.02714        43.83796        -2.65639
H         43.54130        43.19288        -3.19768
O         45.51922        23.82895         2.77665
H         45.80592        24.63305         3.26641
O         37.72889        36.26586         3.62418
H         38.17247        35.51667         4.08798
O         30.19052        35.48530        -0.65165
H         29.62537        35.25937        -1.43298
O         24.93909        31.90823         0.50533
H         23.97905        31.73788         0.34913
O         54.93974        38.13059         2.54118
H         54.41143        37.49799         3.08238
O         34.01081        35.49944         4.12973
H         34.42961        34.71435         4.55806
O         58.94087        48.43544        -1.90018
H         59.88157        48.20104        -1.75182
O         60.38023        31.08269         2.93533
H         59.81351        31.61144         3.54347
O         47.85448        19.36905         1.71150
H         47.42973        18.47595         1.65011
O         38.27782        46.58907        -0.75406
H         38.91566        46.93863        -1.41204
H         26.73771        25.29593        -6.24946
H         25.54876        27.01633        -7.55996
H         24.45518        28.92805        -6.42011
H         23.27967        30.18654        -5.47367
H         22.57018        32.25438        -4.43621
H         21.62497        33.62719        -3.08937
H         21.48741        36.05411        -2.67440
H         21.40431        37.92049        -2.36087
H         21.23309        40.26666        -1.80106
H         21.00451        42.10828        -1.00365
H         21.05366        44.53693        -1.11383
H         21.25093        46.37712        -1.85160
H         23.12340        50.07216        -0.71574
H         21.17435        48.84102        -1.60463
H         27.29922        23.82072        -5.19568
H         24.49336        50.93920         0.37766
H         28.55660        22.14479        -3.91005
H         26.43460        52.08408         1.33660
H         30.45699        19.11660        -1.02520
H         28.66388        20.44886        -1.95588
H         30.47312        54.29446         0.54733
H         28.32057        53.18590         0.67983
H         32.06237        18.12981        -0.82842
H         32.06406        55.24248         0.98171
H         34.07205        16.82934        -0.44529
H         34.18416        56.43527         1.18618
H         38.00160        14.75289        -0.22735
H         35.90923        15.86405         0.48696
H         38.01836        58.49533         1.70890
H         35.89176        57.33542         2.04432
H         39.32096        14.01593        -1.71048
H         39.49083        59.44859         0.64067
H         43.62028        14.00900        -1.57797
H         41.46079        12.82054        -1.84270
H         43.76019        59.40213         0.17995
H         41.65458        60.64857         0.44021
H         45.10341        15.61384        -2.80018
H         45.26116        58.42804        -0.40365
H         47.22085        16.80699        -2.43742
H         47.19557        57.20035        -1.20725
H         51.12012        18.36615        -1.00038
H         48.95816        17.34216        -1.62284
H         50.58080        54.90330        -2.76404
H         48.63981        56.20694        -2.04765
H         52.74896        19.05753         0.17135
H         52.13663        53.85998        -3.36697
H         54.83278        20.29127         0.57750
H         54.18189        52.59277        -3.61350
H         58.52005        22.53635         1.21638
H         56.43766        21.29952         1.16167
H         57.97367        50.47901        -4.00738
H         55.93503        51.73652        -3.67345
H         60.19681        23.50892         0.74986
H         59.50579        49.09250        -4.83044
H         62.29739        24.80412         0.61076
H         62.27466        27.27491         0.65126
H         62.07828        29.22582        -0.02425
H         62.08187        31.63283         0.46101
H         62.22810        33.38940         1.48540
H         62.19609        35.75194         1.07807
H         62.13400        37.68940         1.22829
H         62.08638        40.18493         1.22507
H         62.01893        43.05405         0.34479
H         62.01290        44.69160        -1.54381
H         61.91480        45.87082        -3.24630
H         61.58551        47.75303        -4.84210
