         280
 CSIRO Nanostructure Databank - Neutral Graphene Oxide Data Set
C         30.48661        32.26039        -1.92514
C         30.69631        33.40447        -1.49442
C         30.57129        36.35618        -0.41166
C         30.47142        37.44405         0.18878
C         30.41820        40.41582         1.36507
C         30.31185        41.64838         1.43552
C         32.77274        29.52577        -1.86414
C         31.48657        29.84775        -1.93523
C         33.23289        32.24381        -1.60654
C         31.31800        31.16762        -2.33828
C         33.04551        33.46913        -1.04714
C         31.88340        34.36979        -1.48979
C         32.84950        36.11565         0.07151
C         31.76741        35.57757        -0.59921
C         32.74108        37.36610         0.86537
C         31.50561        38.21554         0.79318
C         32.78610        40.27126         1.36799
C         31.52258        39.51367         1.24314
C         32.77006        41.68144         1.39649
C         31.50004        42.50068         1.84434
C         32.71464        44.33838         0.89612
C         31.60801        43.86780         1.19975
C         35.49186        27.68014        -1.86066
C         35.14620        28.86780        -1.06781
C         34.03315        29.77472        -1.45463
C         35.21690        31.72229        -0.11824
C         34.07607        31.20146        -0.96028
C         35.28966        33.17556         0.02786
C         33.98831        33.93388         0.06098
C         35.35938        36.02758         0.70403
C         34.20646        35.45128        -0.12092
C         35.32855        37.38199         1.08954
C         34.05130        38.10391         1.22636
C         35.28875        40.28124         1.21390
C         34.03297        39.56559         1.26879
C         35.27679        41.64791         1.04413
C         33.96087        42.31831         0.70533
C         35.17991        44.49129         0.33608
C         34.03595        43.85439         0.69802
C         35.42952        45.83190        -0.06734
C         37.84507        27.48520        -1.17813
C         36.57257        27.08631        -1.69203
C         37.74642        28.70676        -0.52430
C         36.43156        29.41585        -0.34525
C         37.71461        31.60217         0.38717
C         36.43381        30.86509         0.12246
C         37.73664        33.13558         0.22921
C         36.44761        33.74137         0.80376
C         37.71533        35.75537         1.62819
C         36.50867        35.24853         0.87208
C         37.78580        37.28936         1.75305
C         36.47075        38.09096         1.79210
C         37.84187        40.29314         1.56780
C         36.60115        39.49434         1.15269
C         37.82165        41.76554         1.26127
C         36.49187        42.54625         1.16549
C         37.76892        44.51139         0.09133
C         36.47929        43.67091         0.11432
C         37.76035        45.80315        -0.36359
C         36.42458        46.33687        -0.63712
C         40.24719        24.64284        -1.12633
C         39.19641        25.27341        -1.31314
C         40.25747        27.24912        -0.48785
C         39.14826        26.78019        -1.48558
C         40.29913        28.75621        -0.53069
C         39.01889        29.37589        -0.12476
C         40.25338        31.64130        -0.01555
C         39.01076        30.83957         0.24913
C         40.28089        33.12929         0.28903
C         39.02048        33.81213         0.70229
C         40.28654        35.86571         1.16660
C         39.02874        35.11666         1.13743
C         40.31524        37.24866         1.18640
C         39.09100        38.00559         1.57734
C         40.30805        40.11388         0.80349
C         39.20039        39.53118         1.65108
C         40.33741        41.63143         0.74342
C         38.99467        42.33460         0.44655
C         40.31564        44.66836         0.21557
C         39.04990        43.90101         0.65742
C         40.29035        45.88280        -0.38989
C         38.97974        46.48663        -0.90556
C         40.18685        48.63280        -0.93885
C         39.16569        47.96954        -0.74395
C         42.83063        24.50427        -0.71076
C         41.56555        25.10086        -0.77322
C         42.83777        27.21947        -0.43701
C         41.61014        26.53334        -0.60764
C         42.84823        28.75156        -0.49996
C         41.54621        29.37341         0.05228
C         42.83697        31.65122         0.03178
C         41.55295        30.88966        -0.15742
C         42.78126        33.06832         0.45882
C         41.58820        33.74043         0.60423
C         42.83106        35.88188         0.92035
C         41.58929        35.09173         1.27758
C         42.76475        37.31854         0.87562
C         41.55067        37.99398         0.96893
C         42.76073        40.15554         0.40393
C         41.50974        39.43878         0.73970
C         42.65666        41.50050        -0.14186
C         41.39580        42.02952        -0.25666
C         42.81648        44.57842        -0.28033
C         41.69764        44.27934         0.69603
C         42.83850        45.90974        -0.57374
C         41.57324        46.73931        -0.35171
C         42.85236        48.66035        -1.08599
C         41.50991        48.02560        -1.31086
C         43.91153        25.15426        -0.57996
C         45.38721        27.26147        -0.46305
C         44.09623        26.53575        -0.46428
C         45.37874        28.75092        -0.21158
C         44.06859        29.36937         0.25589
C         45.26330        31.61954         0.39519
C         44.10079        30.90344         0.22934
C         45.27537        33.06744         0.48706
C         44.05767        33.75509         0.61774
C         45.27021        35.90606         0.27938
C         44.01642        35.19556         0.70858
C         45.31546        37.36654         0.66725
C         44.02457        38.09636         0.81069
C         45.27294        40.28732         0.24786
C         43.97570        39.51906         0.43921
C         45.14497        41.49043        -0.67550
C         43.79755        42.15139        -0.89540
C         44.97579        44.32868        -1.53757
C         44.05177        43.68564        -0.45105
C         45.34868        45.77950        -1.07428
C         44.16776        46.62054        -0.73683
C         43.91568        48.03763        -1.00600
C         47.72265        27.34015         0.39637
C         46.68360        26.77743         0.02033
C         47.78259        28.72566         0.92312
C         46.55111        29.44500         0.44179
C         47.87689        31.65480         0.23302
C         46.56916        30.92395         0.22487
C         47.83468        33.09376         0.59341
C         46.56536        33.77759         0.56980
C         47.74835        36.00438         0.89467
C         46.53169        35.16944         0.64710
C         47.73394        37.27895         0.03615
C         46.50275        38.09153         0.14947
C         47.68659        40.13076        -0.52417
C         46.46902        39.42452        -0.14567
C         47.59599        41.49624        -0.89510
C         46.28124        42.10356        -1.13256
C         47.63527        44.04065        -2.40087
C         46.15274        43.34311        -2.01536
C         47.36993        45.49694        -2.39420
C         46.59430        46.17373        -1.71917
C         50.35155        28.88132         1.22401
C         48.99794        29.57417         1.28578
C         50.43964        31.62106         0.50573
C         49.16699        30.77992         0.27104
C         50.36347        33.11873         0.72365
C         49.04559        33.84544         0.73585
C         50.27319        36.07901         1.00823
C         49.03717        35.23352         0.80145
C         50.27587        37.41845         0.28370
C         49.05147        38.04764        -0.18202
C         50.13563        40.31789        -0.41481
C         48.96294        39.50952        -0.40616
C         50.05925        41.69474        -0.68301
C         48.78574        42.27017        -0.99594
C         49.87524        44.32361        -1.13037
C         48.68698        43.64930        -1.41418
C         51.42141        29.54139         1.24941
C         52.74769        31.77730         1.18671
C         51.70341        30.87491         0.93434
C         52.72805        33.02713         1.24672
C         51.52207        33.91036         1.43394
C         52.64397        36.26986         1.21344
C         51.60552        35.26765         0.73903
C         52.60347        37.46438         0.90153
C         51.52310        38.20710         0.24547
C         52.45749        40.68057         0.20400
C         51.47055        39.65493        -0.14692
C         52.34054        41.90805         0.11499
C         51.37485        42.58233        -0.82370
C         50.96908        44.02568        -0.56638
O         32.54156        31.85867        -2.76603
O         35.37157        28.66128         0.33236
O         37.88716        41.28843         2.63621
O         36.93306        31.05838         1.47809
O         48.35010        37.21841        -1.24606
O         47.17449        31.36216        -1.03814
O         45.68233        42.85094        -3.33745
O         38.61696        37.56545         2.92185
O         45.11753        46.18116         0.27507
O         46.69705        29.02042         1.84095
O         50.70124        32.56411        -0.57860
O         40.12738        32.60624        -1.10010
O         45.52227        28.25755        -1.55884
O         39.09013        29.86587         1.32714
O         33.23569        37.35741         2.22368
O         44.89881        37.76225         2.00317
O         33.94250        31.21340         0.50466
O         42.27986        31.37241        -1.30810
O         51.84733        38.67383        -1.12769
O         41.99555        44.03197         1.85373
O         45.61810        40.81311         1.56814
H         45.56367        40.06127         2.19927
O         41.43540        47.60132        -2.64196
H         41.35617        48.37650        -3.23377
O         39.53361        27.10527        -2.80905
H         38.82338        26.83727        -3.42771
O         47.64686        36.55116         2.29040
H         47.15202        35.90272         2.83676
O         51.84057        42.45087        -2.13587
H         52.65080        42.98721        -2.25340
O         44.06793        28.99493         1.65068
H         43.16471        29.13492         2.02564
O         44.74927        43.63815         0.78998
H         44.09359        43.58535         1.52111
O         51.22990        34.02456         2.80400
H         51.21505        34.97923         3.06289
O         32.05129        34.80124        -2.83095
H         32.21139        34.00652        -3.38531
O         41.52725        29.10505         1.49024
H         40.63946        29.40297         1.83213
O         36.31610        43.06613        -1.19656
H         36.40913        43.77688        -1.86670
O         37.55233        35.28667         2.99551
H         38.23525        35.75078         3.53241
O         44.17390        44.62267        -2.69193
H         43.72020        43.79796        -2.98292
O         39.00504        44.10966         2.08161
H         39.78838        43.63933         2.46465
O         34.60008        35.61603        -1.50391
H         34.78848        36.56249        -1.67256
O         36.09462        38.29483         3.16321
H         35.94419        37.41886         3.57714
O         39.74478        26.89201         0.82257
H         40.34655        27.28403         1.49372
O         40.76015        42.02806         2.07138
H         40.41079        41.35518         2.71386
O         36.85126        39.21995        -0.25820
H         36.95713        40.07596        -0.73100
O         51.79166        35.03778        -0.62811
H         51.86988        35.88999        -1.10573
O         41.69665        34.80079         2.72037
H         41.78347        35.65799         3.19010
O         41.65198        47.29155         0.97410
H         41.76128        46.56453         1.62332
O         46.32864        41.57478        -3.60155
H         47.26181        41.86016        -3.81444
O         48.03668        43.55291        -3.67579
H         47.48764        43.99518        -4.35741
O         36.24771        33.30336         2.16626
H         35.38559        33.66279         2.47228
O         45.22250        35.95310        -1.18987
H         45.33149        35.03865        -1.52919
O         36.30570        43.24441         2.41763
H         36.67678        42.67693         3.13191
O         48.83530        30.12728         2.57071
H         48.22731        29.56022         3.09505
O         33.40658        33.73781         1.37553
H         33.29519        32.76183         1.49098
O         42.93511        29.06945        -1.89149
H         43.80363        28.74699        -2.23036
O         50.31179        36.45259         2.42717
H         49.37114        36.66313         2.68311
O         37.63223        33.40457        -1.19339
H         38.51342        33.20556        -1.60116
O         41.06557        42.83865        -1.30945
H         41.80898        42.79932        -1.96695
O         38.61060        41.99821        -0.90220
H         39.26710        42.39593        -1.51993
O         33.76316        41.99981        -0.72365
H         34.58755        42.29091        -1.19072
O         31.53405        42.62588         3.23669
H         30.74659        43.12220         3.53960
O         38.91872        46.23729        -2.32379
H         38.09871        46.65544        -2.66325
O         39.71466        39.77387         2.99872
H         39.10848        39.31205         3.62443
O         43.40761        42.09878        -2.30152
H         44.21077        41.92307        -2.85665
O         49.32388        30.14358        -0.99536
H         49.38942        30.83726        -1.68631
