         228
 CSIRO Nanostructure Databank - Neutral Graphene Oxide Data Set
C        -10.73633         0.61347         1.81680
C         -9.64791         1.41905         1.29782
C         -8.32830         0.70327         1.10278
C         -7.32967         1.47501         0.28058
C         -6.19002         0.78911        -0.23753
C         -5.01264         1.48504        -0.60385
C         -3.82713         0.79487        -0.87667
C         -2.56308         1.54528        -0.84281
C         -1.27407         0.81126        -0.78068
C         -0.02344         1.50213        -1.22806
C          1.28596         0.75118        -1.14494
C          2.54508         1.50528        -0.94707
C          3.79042         0.76102        -0.81912
C          4.98037         1.45669        -0.67496
C          6.27094         0.77735        -0.77549
C          7.53943         1.52321        -0.46633
C          8.76968         0.74150        -0.06879
C          9.87639         1.49028         0.58191
C         11.00271         0.72126         1.05988
C         -9.75963         2.76659         1.14648
C         -8.71624         3.58068         0.42734
C         -7.40860         2.85361         0.26783
C         -6.26395         3.66173        -0.17774
C         -5.00459         2.97195        -0.60618
C         -3.72455         3.72166        -0.58256
C         -2.54232         3.04389        -1.27147
C         -1.19830         3.67865        -0.90555
C         -0.02617         2.97524        -1.08616
C          1.28842         3.65148        -1.39788
C          2.53857         2.89045        -0.97526
C          3.74259         3.63960        -0.71331
C          4.94246         2.88181        -0.18981
C          6.26569         3.62577        -0.25727
C          7.45205         2.95952        -0.10272
C          8.65214         3.64418         0.37731
C          9.83922         2.85980         0.66386
C         -8.56962         5.03213         0.84935
C         -7.41586         5.72926         0.74283
C         -6.14266         4.99984         0.48599
C         -4.80400         5.66884         0.52464
C         -3.64546         5.02415        -0.16975
C         -2.38158         5.75752        -0.22593
C         -1.21165         5.09098        -0.58146
C          0.09274         5.77362        -0.45208
C          1.32873         5.04169        -0.81412
C          2.57354         5.80728        -1.11181
C          3.79508         5.02686        -0.79252
C          4.99206         5.76762        -0.53610
C          6.17115         5.07419         0.05688
C          7.36460         5.76856         0.68599
C          8.60569         4.97579         0.73217
C         -7.41747         7.24987         0.82123
C         -6.05180         7.91588         0.92792
C         -4.75916         7.14848         0.79037
C         -3.50657         7.87391         0.47098
C         -2.35365         7.16509         0.14600
C         -1.06440         7.87376         0.21775
C          0.14885         7.24592        -0.31271
C          1.29919         7.97119        -0.52444
C          2.54900         7.30240        -0.98464
C          3.84326         7.98356        -0.74640
C          5.00015         7.13564        -0.76381
C          6.69150         8.15545         0.30003
C          7.42441         7.23998         0.99001
C         -5.99333         9.36408         0.62321
C         -4.81550        10.00399         0.45658
C         -3.52321         9.32488         0.46120
C         -2.37124        10.06047         0.25379
C         -1.05688         9.42892         0.31195
C          0.18330        10.10977        -0.09418
C          1.33084         9.41408        -0.36465
C          2.63190        10.15079        -0.65545
C          3.89034         9.32916        -0.40394
C          5.01685         9.99568         0.21744
C          6.21795         9.48256         0.64898
C        -10.68030        -0.75140         1.82383
C         -9.56398        -1.48141         1.26956
C         -8.44417        -0.75958         0.74231
C         -7.39539        -1.42990         0.12949
C         -6.28544        -0.66856        -0.48527
C         -5.11333        -1.40295        -1.06941
C         -3.81195        -0.65204        -1.17443
C         -2.51134        -1.42933        -1.05559
C         -1.27770        -0.68369        -0.64650
C          0.02184        -1.42381        -0.64839
C          1.29641        -0.69886        -0.83808
C          2.48343        -1.39920        -0.80184
C          3.77484        -0.69953        -0.81738
C          4.93776        -1.40718        -0.60159
C          6.25586        -0.75111        -0.64841
C          7.43843        -1.41946        -0.03458
C          8.64909        -0.71549         0.18592
C          9.74533        -1.37935         0.80124
C         10.94960        -0.63608         1.13307
C         -9.55880        -2.88361         1.21706
C         -8.47886        -3.59165         0.66503
C         -7.36966        -2.87477         0.06011
C         -6.29982        -3.57592        -0.49121
C         -5.07863        -2.93432        -1.13187
C         -3.81488        -3.56627        -0.47716
C         -2.50207        -2.90058        -0.84570
C         -1.29502        -3.57901        -0.81295
C         -0.01117        -2.88622        -0.83484
C          1.19781        -3.55599        -0.77178
C          2.44725        -2.84622        -0.66234
C          3.61883        -3.56153        -0.37875
C          4.97459        -2.91221        -0.52658
C          5.94277        -3.37014         0.56063
C          7.31147        -2.74326         0.42916
C          8.42774        -3.43237         0.97295
C          9.64849        -2.74092         1.12491
C         -8.43498        -5.01572         0.75852
C         -7.39662        -5.74930         0.22891
C         -6.36547        -5.07503        -0.64613
C         -5.00338        -5.75400        -0.59675
C         -3.82923        -5.07704        -0.67363
C         -2.54681        -5.79540        -1.07439
C         -1.26715        -5.04257        -0.75079
C         -0.08030        -5.71948        -0.72456
C          1.24762        -5.04136        -1.02730
C          2.40957        -5.72307        -0.32439
C          3.58320        -4.94296        -0.03787
C          4.76476        -5.56977         0.49045
C          5.95385        -4.87537         0.68571
C          7.12975        -5.53937         1.18597
C          8.31073        -4.81830         1.34589
C         -7.34179        -7.17196         0.39451
C         -6.24135        -7.90597         0.02672
C         -5.04908        -7.24125        -0.55226
C         -3.75155        -7.97977        -0.43786
C         -2.48338        -7.23374        -0.58630
C         -1.30872        -7.92056        -0.52339
C         -0.04984        -7.20093        -0.81988
C          1.27572        -7.92623        -0.66965
C          2.39378        -7.09735        -0.16140
C          3.41156        -7.74122         0.68542
C          4.66055        -6.94689         1.00428
C          5.89736        -7.66412         1.37394
C          7.07293        -6.95978         1.46315
C         -6.17700        -9.35005         0.20067
C         -4.99957       -10.00712         0.31025
C         -3.71223        -9.23130         0.41545
C         -2.45145       -10.00773         0.19733
C         -1.25681        -9.34265        -0.13078
C         -0.02981       -10.00820        -0.03640
C          1.29420        -9.45376        -0.49897
C          2.44907        -9.98159         0.31866
C          3.47423        -9.21930         0.77822
C          4.66049        -9.79874         1.38927
C          5.79068        -9.08147         1.64694
O          5.52542        -3.39458        -1.78163
H          4.94706        -3.09141        -2.51306
O         -5.28132         4.89689         1.67790
O         -0.70877        -1.08568         0.62723
O          2.50897         6.63547        -2.30940
O          1.49120       -10.04236        -1.82334
H          1.06761        -9.42154        -2.46429
O         -5.29614         7.52441         2.10844
O          2.64429        10.54461        -2.04335
H          2.65633         9.73131        -2.59056
O          8.57610         1.21445        -1.44894
O         -2.59948        -5.84164        -2.52992
H         -1.71712        -6.11786        -2.85972
O         -5.05211        -3.29259        -2.53161
H         -5.51234        -2.57640        -3.02516
O         -3.01607        -1.00709        -2.36270
O         -0.86320         8.57210         1.48195
O         -3.99337        -3.29501         0.94747
H         -3.18556        -3.57980         1.42536
O         -2.70954         3.14885        -2.63193
O          3.57589        -7.08991         1.99522
O          4.73100         2.76518         1.26720
H          4.95980         3.63504         1.67212
O         -1.83987         1.42883         0.43219
O          1.33971         3.77270        -2.84248
H          1.12169         2.88721        -3.21647
O         -3.63975        -8.72111         1.80343
H         -3.54465        -9.49386         2.39967
O         -6.15091        -0.91168        -1.96719
O         -8.03110         7.75539        -0.37381
H         -8.89118         7.30438        -0.49979
O          0.73333        -7.61131        -1.99209
O          1.41346        -5.13137        -2.42873
O          0.58985         1.00180        -2.45742
O          6.45021        -0.08498        -1.93662
O          5.39983        -2.87334         1.82302
H          5.95958        -3.21367         2.55232
O         -9.22391         3.67935        -0.95880
H         -8.45817         3.85651        -1.54896
O          6.24144         7.73366        -0.96945
O         -4.49946        -8.01546        -1.68262
O         -6.82514        -5.29986        -2.02017
H         -6.17502        -4.83111        -2.60236
O         -5.95184         3.56163        -1.60083
O          6.25317         5.21083         1.54626
O          0.95890         5.09997         0.58797
O         -7.71532         0.68228         2.44390
H         -8.35403         0.25284         3.05234
H         11.80902        -1.20164         1.52170
H         11.90212         1.26094         1.39133
H         10.70172         3.39040         1.09651
H          9.52518         5.47048         1.08053
H          7.86773         7.50620         1.96157
H          6.84198        10.10766         1.30625
H          4.80679        11.03548         0.52061
H          2.66352        11.09489        -0.05679
H          0.18803        11.21011        -0.13241
H         -2.43857        11.13956         0.04920
H         -4.80726        11.08851         0.26908
H         -6.94169         9.91376         0.53844
H         -8.03753         7.56673         1.71082
H         -9.51069         5.57670         1.03740
H        -10.71727         3.25990         1.37864
H        -11.64269         1.12731         2.17075
H        -11.53227        -1.33094         2.20873
H        -10.40435        -3.44362         1.64354
H         -9.23295        -5.52801         1.31785
H         -8.19593        -7.67329         0.87572
H         -7.12715        -9.90336         0.25892
H         -4.97949       -11.09935         0.44504
H         -2.41361       -11.06832         0.49137
H         -0.04177       -11.07357         0.24182
H          2.51100       -11.07768         0.40581
H          4.65048       -10.88161         1.58341
H          6.67702        -9.59364         2.05011
H          8.00098        -7.47255         1.75777
H          9.20746        -5.33213         1.72364
H         10.51434        -3.25899         1.56286
