         651
 CSIRO Nanostructure Databank - Neutral Graphene Oxide Data Set
C          6.36186        32.25811         0.98177
C          6.46744        33.60930         0.98131
C          8.50571        27.77894         0.31188
C          8.60394        29.20577         0.42971
C          7.46166        29.96773         0.63126
C          8.90102        32.00642         1.15767
C          7.53965        31.36540         1.07388
C          8.97423        33.50376         1.24590
C          7.73656        34.31117         1.06624
C          9.10184        36.38074         1.07579
C          7.82352        35.67794         1.06440
C          9.21009        37.67525         1.46554
C         10.75967        23.39783         0.19318
C         10.77992        24.76076        -0.05295
C          9.60030        25.56772         0.07352
C         10.84185        27.66766        -0.43984
C          9.61400        26.97340         0.01891
C         11.00834        29.10553        -0.12939
C          9.91883        29.85110         0.33019
C         11.28821        31.89880         0.43002
C         10.06859        31.26489         0.60721
C         11.49943        33.34183         0.72426
C         10.28977        34.17326         1.05070
C         11.65826        36.24587         0.92400
C         10.29799        35.60794         0.54348
C         11.58924        37.73369         0.74860
C         10.53094        38.43074         1.57965
C         11.28246        40.54537         0.43783
C         10.35206        39.87164         1.18911
C         11.19712        41.96216         0.20712
C         13.30598        19.06945         0.74580
C         13.26894        20.48766         0.48814
C         12.08629        21.20227         0.58117
C         13.18730        23.18933        -0.42996
C         12.06655        22.71105         0.52183
C         13.20066        24.68628        -0.61123
C         12.05308        25.39812        -0.43642
C         13.37267        27.52242        -0.86568
C         12.05823        26.85081        -0.72579
C         13.42523        28.97335        -0.73880
C         12.30021        29.69382        -0.28616
C         13.73235        31.84006        -0.48836
C         12.46651        31.10041         0.07673
C         13.58823        33.30092        -0.76143
C         12.73581        34.06952         0.20861
C         13.54400        36.21295        -0.77829
C         12.72170        35.55134         0.08973
C         13.14199        37.62348        -1.20960
C         12.41267        38.38278        -0.11315
C         13.50548        40.51602        -0.63572
C         12.41479        39.83369        -0.14274
C         13.50691        41.96537        -0.65270
C         12.26574        42.66357        -0.32748
C         13.33395        44.84931        -0.76668
C         12.21873        44.08460        -0.45983
C         13.16718        46.25856        -0.95162
C         15.84273        14.92684         1.65987
C         15.75667        16.28678         1.27257
C         14.54594        16.95488         1.09096
C         15.73069        19.01750         0.35547
C         14.49571        18.34886         0.74694
C         15.66793        20.40169        -0.06665
C         14.52093        21.13451         0.09334
C         15.74320        23.22791        -0.71745
C         14.55351        22.64534         0.01636
C         15.71091        24.60888        -1.16082
C         14.35895        25.26891        -1.40417
C         15.66595        27.43309        -1.75465
C         14.44534        26.77056        -1.25840
C         15.81732        28.87999        -1.47004
C         14.60107        29.66774        -1.16997
C         15.73558        31.71760        -2.04895
C         14.66358        31.04918        -1.26742
C         15.67826        33.21345        -2.32036
C         14.50458        34.01333        -1.73288
C         15.24053        36.27996        -2.49620
C         14.51241        35.51687        -1.62966
C         15.43124        37.73796        -2.49424
C         14.20194        38.53820        -2.00102
C         15.80561        40.42352        -1.49495
C         14.61471        39.79985        -1.26737
C         15.95704        41.86341        -1.02481
C         14.64733        42.64320        -0.99004
C         15.96677        44.75541        -1.06161
C         14.59666        44.13002        -1.28280
C         16.16437        46.00829        -0.55755
C         14.24755        47.12887        -0.69596
C         15.89784        48.98553        -0.89791
C         14.59643        48.39163        -1.14714
C         15.88654        50.36427        -0.70511
C         18.48442        10.91874         3.05400
C         18.37685        12.26655         2.55946
C         17.17731        12.92891         2.35293
C         18.28009        14.95639         1.43739
C         17.08933        14.27600         1.83994
C         18.27261        16.30352         1.02246
C         17.02709        17.11028         1.28743
C         18.19695        19.07309         0.19889
C         16.95353        18.38017         0.48343
C         18.18404        20.38196        -0.21528
C         16.90168        21.00015        -0.70001
C         18.19140        23.19328        -0.92630
C         16.91626        22.51075        -0.70653
C         18.18145        24.61270        -1.39273
C         16.86239        25.22997        -1.59841
C         18.23044        27.32884        -2.14641
C         16.90423        26.64189        -2.03384
C         18.25584        28.78020        -2.32931
C         17.07446        29.55973        -1.88180
C         18.18831        31.67004        -2.48615
C         17.03578        31.01086        -2.14650
C         18.17879        33.10210        -2.60030
C         17.01328        33.83312        -2.57532
C         18.20686        36.03066        -2.73011
C         17.11000        35.21968        -2.96079
C         18.20540        37.56577        -2.93172
C         16.83406        38.34459        -2.66147
C         18.30299        40.40400        -2.02016
C         16.92052        39.88411        -2.40923
C         18.37383        41.79984        -1.82082
C         17.09559        42.56067        -1.74872
C         18.45813        44.70920        -1.51207
C         17.12221        44.05703        -1.66254
C         18.54535        46.15783        -1.14281
C         17.28020        46.86891        -0.87288
C         18.43785        49.01558        -1.06028
C         17.18334        48.25351        -0.92247
C         18.34963        50.47229        -0.81022
C         17.06988        51.09620        -0.42480
C         18.23725        53.01469         0.60505
C         17.05335        52.38220         0.09499
C         18.15761        54.23292         1.31241
C         21.16711         7.39854         5.19936
C         21.08744         8.47588         4.32941
C         19.74912         8.88044         3.75202
C         20.94263        10.93744         2.81935
C         19.70281        10.30591         3.24178
C         20.91335        12.19790         2.18974
C         19.65117        12.95875         2.28951
C         20.75877        14.77096         0.88281
C         19.58439        14.31192         1.65977
C         20.70279        16.21429         0.42705
C         19.45886        16.97095         0.66553
C         20.68375        18.99924         0.07291
C         19.47492        18.36576         0.36049
C         20.65711        20.33852        -0.60596
C         19.46530        21.18217        -0.18514
C         20.64624        23.10081        -1.28869
C         19.45250        22.44732        -1.00118
C         20.66635        24.43742        -1.83506
C         19.34967        25.09222        -2.24447
C         20.59702        27.24778        -2.87844
C         19.38607        26.60543        -2.24296
C         20.68915        28.75106        -2.63943
C         19.42973        29.45637        -2.59687
C         20.68965        31.65166        -2.44452
C         19.44307        30.93429        -2.91711
C         20.63182        33.02174        -2.31562
C         19.47467        33.83417        -2.85855
C         20.59698        36.01103        -2.15809
C         19.43370        35.31650        -2.45964
C         20.61651        37.45593        -2.13142
C         19.45290        38.20938        -2.29091
C         20.76511        40.32471        -1.89254
C         19.49655        39.64746        -2.10076
C         20.81836        41.75841        -1.80944
C         19.60843        42.48241        -1.81635
C         20.97161        44.68996        -2.02416
C         19.64633        43.95285        -2.02205
C         21.00130        46.22292        -1.94694
C         19.73094        46.95442        -1.57911
C         20.97411        49.10717        -1.14192
C         19.66891        48.41320        -1.27776
C         20.92096        50.44516        -0.43340
C         19.62030        51.18323        -0.36038
C         20.59668        52.76765         1.30429
C         19.48972        52.33759         0.53151
C         20.50415        53.99934         2.02703
C         19.27382        54.75607         1.99474
C         20.26044        56.46965         3.46877
C         19.18806        55.98025         2.70297
C         20.18759        57.72482         4.11624
C         23.75783         5.43201         7.07025
C         22.51758         5.84401         6.59495
C         23.60715         7.64620         5.33406
C         22.41760         6.95203         5.71215
C         23.51658         8.75479         4.46570
C         22.27772         9.16078         3.94424
C         23.37725        10.90927         2.54667
C         22.20333        10.33265         3.07571
C         23.32174        12.06957         1.74731
C         22.09065        12.78122         1.64358
C         23.21604        14.78965         0.67811
C         22.06433        14.11147         1.06671
C         23.20182        16.23097         0.46769
C         21.98285        16.92400         0.35724
C         23.15451        19.08763         0.29320
C         21.95609        18.33953         0.23661
C         22.99372        20.59163         0.43599
C         21.91539        21.15328        -0.45476
C         23.12181        23.26072        -0.84545
C         21.90384        22.46113        -0.86566
C         23.08491        24.54113        -1.45793
C         21.88757        25.10227        -2.01252
C         23.17652        27.23934        -2.67377
C         21.90186        26.46954        -2.64956
C         23.16933        28.71600        -2.27794
C         21.87334        29.45794        -2.49082
C         23.11731        31.56136        -1.88400
C         21.90825        30.89069        -2.24649
C         23.02369        32.96531        -1.57537
C         21.76745        33.71693        -1.72311
C         23.07942        35.92977        -1.52895
C         21.78318        35.25643        -1.66478
C         23.15335        37.35325        -1.66455
C         21.97911        38.13053        -2.23612
C         23.20715        40.25604        -1.58521
C         21.97909        39.59296        -1.84795
C         23.25124        41.66659        -1.47236
C         22.08410        42.46395        -1.68284
C         23.45519        44.60165        -1.76134
C         22.15930        43.88949        -1.72524
C         23.69428        46.14997        -1.72133
C         22.34718        47.00918        -1.97237
C         23.31019        48.63799        -0.04857
C         22.27718        48.28661        -1.08802
C         22.95051        49.66887         0.99425
C         21.83137        50.63712         0.74287
C         22.78772        52.34475         2.30970
C         21.76468        51.94557         1.45029
C         22.77223        53.64835         2.90572
C         21.60915        54.46581         2.76983
C         22.55058        56.12777         4.31244
C         21.50218        55.70665         3.51992
C         22.37771        57.29889         5.18210
C         21.24190        58.20319         4.91958
C         22.42985        60.01688         6.07266
C         21.25443        59.48323         5.49633
C         24.93510         6.08465         6.68029
C         26.08314         7.81309         5.33558
C         24.89202         7.19207         5.80935
C         26.05433         8.90504         4.45251
C         24.73452         9.60353         4.18858
C         25.90696        10.96037         2.44114
C         24.67384        10.16152         2.77167
C         25.83018        11.94305         1.44391
C         24.53252        12.56762         1.05188
C         25.70522        14.88066         0.37373
C         24.48280        14.05283         0.50574
C         25.67362        16.30086         0.51728
C         24.41874        16.98994         0.48391
C         25.63888        19.15675         0.59180
C         24.39576        18.42166         0.45868
C         25.60980        20.65489         0.63134
C         24.30449        21.37833         0.38641
C         25.59397        23.26327        -0.64151
C         24.32198        22.69706        -0.30661
C         25.56827        24.44170        -1.52755
C         24.36356        25.34542        -1.35428
C         25.53884        26.83601        -2.96015
C         24.41856        26.50042        -2.29557
C         25.55971        29.01343        -3.17168
C         24.37530        29.56630        -2.63330
C         25.70231        31.48310        -2.01552
C         24.41188        30.87563        -2.08235
C         25.90269        32.75671        -1.39702
C         24.06219        33.73525        -1.04182
C         25.53595        35.74109        -1.11855
C         24.21335        35.14797        -1.18394
C         25.49547        37.21560        -0.74345
C         24.33108        38.00719        -1.33263
C         25.64510        40.08485        -1.15554
C         24.42235        39.45153        -1.35849
C         25.76068        41.55635        -1.49255
C         24.53163        42.34245        -1.02270
C         25.99140        44.53053        -1.20686
C         24.67624        43.77521        -1.51568
C         25.80209        45.80720        -0.40650
C         24.62486        46.52950        -0.51768
C         25.54892        48.29579         0.98545
C         24.50882        47.78419         0.19982
C         25.37017        49.47786         1.81705
C         24.02491        50.07062         1.96445
C         25.11359        52.01656         3.24125
C         23.90954        51.43766         2.63331
C         25.04561        53.32542         3.81381
C         23.89623        54.11174         3.65887
C         24.95543        55.90069         5.13428
C         23.92739        55.56148         4.07574
C         24.87173        57.08622         5.82916
C         23.61899        57.86641         5.90083
C         23.60022        59.29327         6.17622
C         27.21341         9.44343         3.88492
C         28.36597        11.12737         2.46275
C         27.17549        10.50776         2.91940
C         28.32275        12.08824         1.42951
C         27.04863        12.32859         0.85360
C         28.18164        14.95058         0.36805
C         26.95156        14.30171         0.12292
C         28.15124        16.35643         0.48636
C         26.89367        17.04223         0.51791
C         28.15580        19.24108         0.77949
C         26.85207        18.47461         0.60355
C         28.08115        20.54795        -0.03493
C         26.93220        21.42402         0.46789
C         28.07013        23.32415        -0.67383
C         26.82338        22.65203        -0.39990
C         28.09750        24.52119        -1.38978
C         26.88542        24.98487        -2.05341
C         28.14114        27.15193        -2.92025
C         26.89722        26.30617        -2.76507
C         28.09756        28.67463        -3.18017
C         26.85067        29.49450        -2.94599
C         28.11651        31.58712        -2.50616
C         26.91903        30.84484        -2.46901
C         28.06823        33.10883        -2.53034
C         26.88209        33.66779        -1.74232
C         28.00494        35.83439        -1.41836
C         26.73808        35.06059        -1.38501
C         28.01062        37.20328        -0.84521
C         26.81165        37.92782        -0.87672
C         28.11016        39.99901        -0.80483
C         26.85577        39.33526        -0.91032
C         28.15037        41.43986        -0.76475
C         27.01306        42.19830        -0.95161
C         28.33413        44.27671        -0.15343
C         27.00498        43.60975        -0.55835
C         28.41730        45.78139         0.04886
C         27.04542        46.45608         0.12513
C         27.88767        48.12783         1.76886
C         26.86020        47.64343         0.99882
C         27.82121        49.51853         2.35415
C         26.41731        50.03284         2.54209
C         27.37176        51.71032         4.14686
C         26.27917        51.24603         3.30548
C         27.27922        52.95573         4.79115
C         26.16616        53.80712         4.60847
C         26.08799        55.04881         5.25906
C         29.46403        12.87173         1.00824
C         30.63475        14.94418         0.41834
C         29.42083        14.19494         0.54062
C         30.63650        16.33673         0.31328
C         29.39894        17.07955         0.42608
C         30.60946        19.20218         0.20972
C         29.39703        18.46892         0.39760
C         30.60651        20.60971         0.08412
C         29.38436        21.33352        -0.01268
C         30.53722        23.52223        -0.31941
C         29.32760        22.71739        -0.24232
C         30.44921        24.89843        -0.68111
C         29.18130        25.54991        -1.17850
C         30.62699        27.44185        -2.18112
C         29.46145        26.47299        -2.41853
C         30.63223        28.74740        -2.61409
C         29.39455        29.43062        -3.08828
C         30.67372        31.69678        -2.71636
C         29.36559        30.94082        -2.94750
C         30.58404        33.07735        -2.17120
C         29.38215        33.71153        -2.05299
C         30.50851        35.70070        -0.97995
C         29.31129        35.14739        -1.68319
C         30.45797        37.08062        -0.42387
C         29.23147        37.86382        -0.61400
C         30.59651        39.92322        -0.44839
C         29.30051        39.26707        -0.57224
C         30.63257        41.28401        -0.68419
C         29.43383        42.08821        -0.64662
C         31.34654        44.43405         0.50143
C         29.49503        43.45895        -0.46563
C         30.97446        45.73366         1.07676
C         29.60909        46.40203         0.81759
C         30.11319        47.80900         2.94770
C         29.26800        47.55757         1.73897
C         29.72507        48.84249         3.85428
C         28.66220        49.69659         3.60277
C         28.46312        50.84874         4.38479
C         31.85162        17.08149         0.18660
C         33.09233        19.19405        -0.02679
C         31.85327        18.46623         0.12692
C         33.17651        20.55656        -0.13330
C         31.90232        21.38144         0.17343
C         32.92340        23.35937        -0.94191
C         31.76934        22.79347        -0.38063
C         33.41053        24.64917        -0.72125
C         31.57727        25.75236        -0.68747
C         33.12522        27.46280        -1.63813
C         31.78422        26.86525        -1.51718
C         33.19535        28.75393        -2.39692
C         31.92207        29.49722        -2.72680
C         33.14826        31.63679        -2.25148
C         31.96122        30.97572        -2.58977
C         33.15503        33.04787        -1.88670
C         31.88236        33.78527        -1.95883
C         33.02891        35.67461        -0.61035
C         31.85207        35.16245        -1.32405
C         32.88366        36.88527         0.30531
C         31.72535        37.75787        -0.12397
C         32.92027        39.74798         0.59252
C         31.78162        39.13083        -0.07703
C         32.76562        41.08832         1.11995
C         32.35514        42.21080         0.45652
C         33.14059        43.98304         2.14647
C         32.27314        43.55227         1.02762
C         32.85614        45.17840         2.77139
C         31.80540        46.09958         2.30952
C         31.23503        47.07120         3.24138
C         34.53522        21.12788        -0.21296
C         35.91089        23.11068        -1.16407
C         34.79913        22.21011        -1.01844
C         35.77440        24.46973        -1.49209
C         34.54766        25.23251        -1.30374
C         35.67041        27.24881        -2.29799
C         34.50246        26.69042        -1.49389
C         35.70820        28.77428        -2.34429
C         34.44191        29.53434        -2.22813
C         35.68933        31.65538        -2.09366
C         34.41415        30.90827        -2.21414
C         35.62943        33.12664        -1.63575
C         34.29424        33.72389        -1.43437
C         35.43897        35.61077        -0.17504
C         34.23107        35.01022        -0.75023
C         35.37022        36.96126         0.35937
C         34.17113        37.65629         0.46427
C         35.33121        39.68204         1.38575
C         34.10219        39.03586         0.88567
C         35.48357        41.01296         1.89726
C         34.43829        41.87494         2.29071
C         34.37983        43.26176         2.42548
C         36.98631        25.25869        -1.60377
C         38.17781        27.38576        -1.65519
C         36.97871        26.61327        -1.83691
C         38.20989        28.76061        -1.69476
C         37.00062        29.51505        -2.08824
C         38.19171        31.72339        -1.65569
C         36.92095        30.93687        -1.80980
C         37.97406        32.95428        -0.80190
C         36.79348        33.64812        -0.86463
C         37.86793        35.57344         0.30755
C         36.65507        34.93998        -0.20528
C         37.80718        36.93788         0.72184
C         36.59376        37.62803         0.75890
C         36.52772        38.95302         1.25774
C         39.37300        29.51962        -1.30697
C         40.54698        31.62600        -0.79039
C         39.37120        30.88408        -1.21686
C         40.42766        32.84683        -0.23137
C         39.07312        33.38890         0.14271
C         39.05282        34.86523         0.37820
O         36.51371        29.21048        -3.48558
O          8.30564        31.42993         2.35722
O         21.31337        50.36203        -1.82097
O         16.84881        43.37166        -2.93457
O         15.28148        32.26059        -3.34839
O         18.76789        45.11005        -0.12370
O         27.38887        43.74991         0.84722
O         23.52600        50.18254         3.32371
O         30.69498        44.11841        -0.69967
O         29.86928        47.77800         0.41641
O         16.83455        29.19517        -0.44289
O         23.38830        49.18329        -1.40191
O         13.55830        39.05106        -3.13325
O         33.18834        41.23942         2.44910
O         32.01039        35.01386        -2.76612
O         26.05562        24.06191        -2.84472
O         33.97744        27.53979        -0.44500
O         15.16008        46.57083         0.22445
O         20.49394        15.09094        -0.51290
O         32.74307        28.84158        -3.77602
O          9.78479        33.97790         2.39388
O         19.07243        51.37152        -1.69934
O         25.43555        27.84267        -3.92418
O         21.41561        34.45196        -0.47779
O         24.89298        21.29890         1.75235
O         28.69590        35.94777        -2.73817
O         16.00364        27.03760        -3.13184
O         25.06117        33.07408        -0.31943
O         32.07945        46.68024         0.97191
O         28.85722        29.00096        -4.38532
O         24.23279        43.96507        -2.86119
O         19.86430        14.18937         3.10304
O         35.87954        32.79650        -3.03870
O         20.09438        46.72669        -2.97416
O         30.05279        31.61154        -4.06356
O         21.66240        49.45592         1.64232
O         24.35701        12.87917        -0.35307
O         31.84293        41.98333        -0.83874
O         33.67124        22.55453        -1.80019
O         15.93970        38.15823        -3.79329
O         32.64602        25.42460         0.16398
O         22.68055        26.67585        -3.91277
O         12.67957        33.58168         1.58177
O         22.59070        57.06930         6.61165
O         18.42878        24.36005         0.02369
O         11.17194        27.27942        -1.83256
O         24.55227        46.49092        -2.77775
O         15.93819        35.68327        -3.54678
O         13.65042        31.39931         0.88206
O         13.19692        33.51868        -2.15694
O         30.25748        35.85810         0.45192
O         27.00562        12.99093        -0.37597
O         27.99327        46.63856        -1.01847
O         27.64080        26.35771        -4.03395
O         20.27547        44.28225        -3.27238
O         22.23024        38.13219        -3.68632
H         21.44343        38.51428        -4.13300
O         32.05420        21.65375         1.62343
H         31.82557        20.82938         2.10486
O         27.76811        20.20027        -1.40278
H         28.55909        19.78858        -1.80904
O         25.77305        41.64517        -2.93874
H         26.61792        41.27805        -3.27109
O         28.42216        50.38931         1.33610
H         29.11529        49.87616         0.86453
O         14.81049        23.11422         1.38790
H         15.68177        22.76283         1.67059
O         27.31939        21.91657         1.78583
H         26.47559        22.16688         2.23584
O         24.67623        10.74759         5.08671
H         24.70696        10.41174         6.00675
O         24.68372         9.01867         1.86975
H         24.69271         9.35588         0.94934
O         19.66667        33.86614        -4.30753
H         19.62307        32.92952        -4.62699
O         25.22998        37.23549         0.71322
H         24.43782        36.67789         0.87217
O         16.43486        41.82951         0.36568
H         15.73009        41.42294         0.91360
O         20.44829        20.06127        -2.02633
H         21.19785        19.51772        -2.34835
O         10.20947        35.53273        -0.89476
H         10.73848        36.26049        -1.31521
O         24.51771        42.39358         0.42291
H         24.59189        41.47877         0.76864
O         12.89498        22.61596        -1.72507
H         13.34525        23.17000        -2.40827
O         17.16243        17.56808         2.68469
H         17.25698        16.76860         3.24601
O         22.42713        20.76648         1.77038
H         23.18809        20.87296         2.38788
O         29.95373        25.61030        -3.45446
H         29.26718        25.57204        -4.16459
O         27.90647        33.48812        -3.92202
H         28.65399        33.07615        -4.41692
O         35.43832        26.79796        -3.65417
H         35.96011        27.38405        -4.24791
O         10.89752        38.42576         2.98862
H         11.23078        37.51478         3.18180
O         28.32627        19.51338         2.19340
H         27.96052        20.41632         2.38103
O         12.27351        23.14666         1.90008
H         13.23517        23.05684         2.11261
O         19.64230        21.60227         1.19665
H         19.28216        22.50925         1.29788
O         16.67062        40.53213        -3.67741
H         15.87908        40.08786        -4.06679
O         14.03866        24.95722        -2.80521
H         13.38764        25.61946        -3.12310
O         20.27106        27.10856        -4.30813
H         21.13725        27.12710        -4.78703
O         14.36545        44.24801        -2.72691
H         15.10933        43.77942        -3.18547
O         19.04312        24.68301        -3.60676
H         19.44700        25.35514        -4.21039
O         32.59226        36.36953         1.64594
H         31.66847        36.01680         1.61603
O         19.45804        31.03562        -4.38495
H         18.72530        30.48715        -4.73925
O         38.75355        32.75621         1.44556
H         37.97751        33.22863         1.81620
O         11.91654        36.01575         2.32929
H         12.13842        35.05722         2.45449
O         22.42881        47.49338        -3.30770
H         23.39148        47.43557        -3.56025
O         28.67826        26.46402        -0.14908
H         28.59073        25.96069         0.68859
O         19.43088         7.99270         2.65610
H         20.15335         8.05342         1.99754
O         18.44667        37.78570        -4.33838
H         17.57620        37.73159        -4.79729
O         23.27713        28.55919        -0.80052
H         23.25782        29.45824        -0.40369
O         24.41643        56.29426         2.88450
H         23.86424        56.02120         2.12045
O         16.82575        20.61737        -2.12347
H         17.72139        20.72194        -2.51242
O         24.45755        25.86346         0.01020
H         23.90665        26.67926         0.05288
O         26.59838        44.88122        -2.45918
H         25.95082        45.51639        -2.89455
O         38.54576        32.20480        -2.99820
H         37.71974        32.58867        -3.38729
O         12.09019        37.34030        -2.17290
H         12.28297        37.98567        -2.92655
H          5.37324        31.78610         0.87935
H          5.55749        34.22201         0.89287
H          7.53737        27.30586         0.53519
H          6.47307        29.48590         0.58316
H          6.90025        36.27892         1.06166
H          8.31290        38.20040         1.83288
H          9.81019        22.90398         0.45458
H          8.66286        25.06430         0.35709
H          9.50332        40.41995         1.62678
H         10.29279        42.50209         0.52625
H         12.36660        18.56355         1.01776
H         11.16795        20.67358         0.88387
H         11.27836        44.59602        -0.20023
H         12.18012        46.65007        -1.24481
H         14.91474        14.36162         1.83848
H         13.59823        16.40938         1.22356
H         13.85034        49.01210        -1.66659
H         14.91929        50.88600        -0.65118
H         17.56190        10.38027         3.31946
H         16.23611        12.40895         2.58899
H         16.08559        52.87326         0.27658
H         17.19950        54.77129         1.35413
H         20.24903         6.87078         5.49796
H         18.94658         8.72820         4.51773
H         18.25176        56.55644         2.65959
H         19.28921        58.34550         3.97987
H         23.81995         4.57189         7.75162
H         21.60457         5.31081         6.89592
H         22.43232        61.07834         6.35948
H         20.37383        60.13120         5.38037
H         25.90704         5.72636         7.04885
H         27.05363         7.37345         5.61452
H         25.70835        57.39344         6.47724
H         24.54498        59.79885         6.42288
H         28.19299         9.02432         4.16309
H         29.32792        10.85690         2.92185
H         28.10470        53.28641         5.43882
H         26.90058        55.34612         5.93963
H         30.45732        12.48076         1.28247
H         31.59505        14.40805         0.45533
H         30.35993        49.01866         4.73641
H         29.18986        51.10037         5.17217
H         32.80498        16.53584         0.12459
H         34.01336        18.59601        -0.11071
H         33.44786        45.48600         3.64574
H         31.76335        47.25531         4.18902
H         35.34113        20.61626         0.33535
H         36.92746        22.72984        -0.97870
H         36.51389        41.39859         1.94896
H         35.29357        43.85234         2.58885
H         37.94258        24.75689        -1.38713
H         39.08830        26.84164        -1.35881
H         38.72830        37.43207         1.06416
H         37.46589        39.42166         1.59288
H         40.27393        28.95930        -1.01228
H         41.53743        31.16434        -0.92606
H         41.31809        33.40579         0.09282
H         39.95873        35.35565         0.76546
