         272
 CSIRO Nanostructure Databank - Neutral Graphene Oxide Data Set
C        -11.22456         0.55961         0.24358
C         -9.96252         1.39665         0.24423
C         -8.81444         0.63634        -0.39983
C         -7.50042         1.34181        -0.29335
C         -6.44269         0.70854         0.58678
C         -5.07922         1.35077         0.37661
C         -3.87708         0.66885         0.96843
C         -2.56950         1.38403         0.61128
C         -1.31811         0.69348         1.12432
C         -0.10781         1.41619         0.58672
C          1.11365         0.63545         0.24346
C          2.39943         1.34499        -0.08614
C          3.69676         0.61090         0.00722
C          4.97558         1.37485        -0.21311
C          6.26062         0.63302        -0.13084
C          7.54956         1.39228        -0.05796
C          8.75155         0.66860        -0.59395
C         10.05508         1.45967        -0.66058
C         11.30226         0.66628        -0.59143
C         -9.99916         2.82611        -0.30968
C         -8.85130         3.51187        -0.52629
C         -7.53466         2.81866        -0.37722
C         -6.42070         3.59340         0.31060
C         -5.07669         2.84257         0.29043
C         -3.88822         3.60502         0.82321
C         -2.58934         2.86026         1.05469
C         -1.29894         3.63338         1.20419
C          0.06101         2.90120         0.99690
C          1.09514         3.61135         0.10598
C          2.33961         2.84800        -0.27275
C          3.65821         3.58074        -0.43893
C          4.94733         2.88238         0.04637
C          6.23375         3.56660        -0.43746
C          7.53424         2.87488        -0.16588
C          8.80657         3.61891        -0.41257
C         10.01240         2.89399        -0.39662
C         -8.75458         4.92482        -1.09369
C         -7.56171         5.76820        -0.54101
C         -6.27186         4.95328        -0.35412
C         -4.99284         5.69660        -0.19177
C         -3.87496         5.08588         0.62328
C         -2.62215         5.89547         0.88202
C         -1.30045         5.19038         1.37098
C         -0.11519         5.87011         0.64896
C          1.07377         5.12697         0.09911
C          2.36245         5.91970        -0.30116
C          3.66431         5.08371        -0.39555
C          4.99411         5.74073        -0.06633
C          6.25400         5.05711        -0.52641
C          7.54813         5.77916        -0.34766
C          8.76680         5.02278        -0.42819
C         -7.26941         6.97277        -1.41625
C         -6.12484         7.68836        -1.27386
C         -5.08529         7.22457        -0.24833
C         -3.68878         7.81751        -0.50795
C         -2.59964         7.33032         0.41343
C         -1.29465         8.11387         0.43604
C         -0.03801         7.37815         0.79721
C          1.29546         8.11235         0.69602
C          2.50431         7.20603         0.50336
C          3.79437         7.94065         0.58299
C          5.07836         7.16439         0.36917
C          6.37534         7.96244         0.30308
C          7.56771         7.13550        -0.12286
C         -5.94828         9.00943        -1.86338
C         -4.81092         9.73069        -1.74554
C         -3.57108         9.14093        -1.18333
C         -2.42092        10.07481        -0.83591
C         -1.16629         9.35856        -0.37427
C          0.05631         9.84833        -0.71949
C          1.31510         9.30340        -0.23296
C          2.51867         9.90573        -0.41137
C          3.78003         9.47452         0.34257
C          5.00306         9.89801        -0.44756
C          6.15542         9.22021        -0.50652
C        -11.23865        -0.78139         0.13785
C        -10.13760        -1.63635        -0.47463
C         -8.79566        -0.84029        -0.55199
C         -7.47317        -1.55460        -0.31485
C         -6.43048        -0.83553         0.52514
C         -5.20899        -1.57497         1.00643
C         -3.93151        -0.79778         1.31579
C         -2.62994        -1.57114         1.47559
C         -1.33028        -0.79480         1.25729
C         -0.12478        -1.56407         0.79141
C          1.18892        -0.84807         0.49407
C          2.49917        -1.54345         0.71635
C          3.76050        -0.70996         0.74364
C          5.07976        -1.38734         0.98988
C          6.34949        -0.72960         0.50605
C          7.63798        -1.46860         0.35936
C          8.73611        -0.91947        -0.59188
C         10.09612        -1.48015        -0.18757
C         11.29766        -0.67164        -0.38889
C         -9.81226        -2.97205         0.11515
C         -8.80480        -3.82871        -0.60779
C         -7.41942        -3.05075        -0.36538
C         -6.23359        -3.82542         0.18720
C         -5.15233        -3.09307         0.93697
C         -3.93729        -3.85646         1.38126
C         -2.63770        -3.08206         1.54408
C         -1.39685        -3.83148         1.13900
C         -0.10201        -3.04989         0.97068
C          1.20799        -3.71586         1.33643
C          2.47917        -2.82587         1.55280
C          3.81220        -3.63026         1.46797
C          5.11269        -2.88142         1.25202
C          6.35778        -3.65631         0.85299
C          7.64399        -2.97429         0.47016
C          9.02641        -3.61510         0.73323
C         10.18601        -2.74389         0.28754
C         -8.74822        -5.26753        -0.13807
C         -7.63768        -5.95987         0.17811
C         -6.31121        -5.30812         0.36038
C         -5.19609        -6.09984         1.01746
C         -3.89548        -5.38269         1.33844
C         -2.60312        -6.15254         1.35213
C         -1.36599        -5.32452         1.06111
C         -0.03268        -6.01380         1.12829
C          1.23757        -5.21709         1.30403
C          2.53353        -5.90575         0.98850
C          3.79238        -5.08673         1.04271
C          5.05718        -5.90579         1.28191
C          6.33062        -5.06082         1.45782
C          8.18474        -5.72570        -0.38931
C          9.16261        -5.01143         0.12985
C         -7.67337        -7.44920         0.39315
C         -6.37632        -8.12102        -0.10357
C         -5.15788        -7.55024         0.63703
C         -3.83275        -8.23761         0.27532
C         -2.55626        -7.64223         0.98191
C         -1.26248        -8.19889         0.36636
C          0.00503        -7.45784         0.77537
C          1.29523        -8.20876         0.38290
C          2.59383        -7.41055         0.74610
C          3.87699        -7.87845         0.11908
C          5.17713        -7.09400         0.29613
C          6.32951        -7.44789        -0.61640
C          7.34274        -6.46046        -1.09623
C         -6.12335        -7.97959        -1.58494
C         -4.86581        -8.05690        -2.07496
C         -3.68324        -8.22155        -1.24319
C         -2.47210        -8.49554        -1.82082
C         -1.23739        -8.58906        -1.07937
C         -0.04009        -8.86881        -1.69278
C          1.25240        -8.67955        -1.06688
C          2.41270        -9.04588        -1.68107
C          3.75001        -8.47849        -1.28676
C          4.97995        -9.24335        -1.70101
C          6.16869        -8.66057        -1.49103
O         -3.21466         7.87906        -1.87719
O         -5.72706        -4.71144        -0.86250
O          3.13220        -5.25968        -0.22667
O         -3.92073        -9.62888         0.63664
O          4.68967        -3.32394         2.57723
O          7.19834        -5.46805         2.20766
O          3.19603         7.35992         1.79746
O         -2.54935        -2.30281         2.74894
O         -3.28402        -5.86195         2.58413
O         -4.08908         0.24134         2.33439
O          3.46344        -8.37698         1.41006
O          0.12656         1.01726        -0.77837
O          1.31445         3.17360        -1.25648
O         -0.80717         8.05819         1.82129
O         -4.83065         2.02736        -0.88887
O         -6.98976        -2.25477        -1.49551
O         -4.30689         4.48809         1.90074
O          5.61773         0.84030        -1.41470
O         -0.31323        -2.44532        -0.35018
O          6.19690         4.23165        -1.72359
O         -1.35189        -9.31563         1.35133
O          8.39662        -1.31929        -1.85458
O          6.77811        -3.58080        -0.53715
O          3.73151         4.35044        -1.65468
O         -1.14195         0.10353         2.41867
O          7.64158         2.19850         1.15740
O         -5.29859         4.99315        -1.43864
O         -5.58637         7.67803         0.97705
O          7.39429        -0.72067         1.56070
O         -6.34669        -1.31759         1.89803
O         -1.98645         3.04095         2.35300
O          1.21366        -9.37396         1.13795
O         -7.13457         2.01327        -1.52956
O          4.41343        -0.61038         2.03374
O          9.17688         1.20799        -1.83824
O         -0.04639        -7.06490         2.15212
O          5.17261         6.07224         1.34905
O         -8.90268         0.02309        -1.72414
O          2.96698         0.64321        -1.24472
O          1.89611        -1.58248        -0.57574
O         -0.05328         5.53155        -0.76533
O          1.10685        -4.50674         2.57088
O          6.31283        -7.90399         0.77091
O         -1.60464        -4.55254        -0.14629
O         -5.48214        -7.14241         1.99255
O         -4.98564        -3.52145         2.32921
O          1.57640         8.63720         2.01670
O         -3.02801         7.00073         1.75631
O          3.79574        -7.23807        -2.09298
H          3.75940        -7.48794        -3.04062
O         -6.85137         1.08301         1.91842
H         -6.37175         0.50323         2.55950
O          4.84892        -6.50191         2.57663
H          5.56914        -7.15642         2.71585
O         -7.93038         6.26090         0.76088
H         -7.19556         6.87220         1.06100
O         -6.55345        -9.52185         0.19984
H         -5.65733        -9.94349         0.21305
O         -8.60969         4.79821        -2.51402
H         -7.86516         4.18740        -2.70105
O          0.69691         2.88634         2.29298
H         -0.00649         2.82152         2.97991
O         -6.86088         3.76266         1.66322
H         -6.16625         4.26211         2.15745
O         -2.38766         1.29311        -0.80901
H         -3.16851         1.68136        -1.27602
O         -2.86459        10.95843         0.20741
H         -2.97505        10.44481         1.03495
O         -8.79069        -8.01579        -0.27257
H         -8.67293        -8.98927        -0.23595
O         -8.99882        -3.91227        -2.00559
H         -9.52935        -3.13196        -2.30641
O          6.68681         8.36982         1.65917
H          6.42637         7.63270         2.25436
O         -2.28983        -8.50555         2.15711
H         -3.66284        -9.70703         1.58599
O        -10.58787        -1.83450        -1.84054
H        -10.37943        -1.00072        -2.32748
O          3.77869        10.14508         1.60561
H          2.98324         9.79397         2.09181
O         -9.63957         1.49768         1.65713
H         -8.76162         1.93130         1.77431
O         -1.15744         5.43089         2.76440
H         -1.53358         6.32381         2.95394
O          2.35004        -2.31940         2.88437
H          2.37074        -3.07478         3.51222
O          2.14392         6.43552        -1.62781
H          2.05214         5.66474        -2.23281
O          9.20819        -3.71399         2.15959
H          8.60443        -4.42366         2.49762
O          4.90900         3.01647         1.48522
H          5.76804         2.69923         1.85464
H         12.26256        -1.19666        -0.30908
H         12.25668         1.20617        -0.67770
H         10.96321         3.43862        -0.28009
H          9.71685         5.57800        -0.46583
H          8.54549         7.63088        -0.01045
H          6.99736         9.61382        -1.09554
H          4.91253        10.84353        -1.00521
H          2.58381        10.83625        -0.99730
H          0.11004        10.74570        -1.35625
H         -2.17737        10.71813        -1.71889
H         -4.75902        10.75759        -2.13529
H         -6.82446         9.45462        -2.35969
H         -8.04617         7.31008        -2.12036
H         -9.70269         5.48365        -0.90338
H        -10.97385         3.32507        -0.42826
H        -12.14551         1.06952         0.56784
H        -12.19991        -1.30314         0.26900
H         -9.85924        -3.07261         1.21300
H         -9.67807        -5.83883        -0.28321
H         -7.74313        -7.65535         1.50267
H         -6.98327        -7.88484        -2.26354
H         -4.69835        -8.01227        -3.16206
H         -2.41256        -8.58910        -2.91605
H         -0.04981        -9.16298        -2.75444
H          2.36426        -9.51698        -2.67807
H          4.89026       -10.18571        -2.26148
H          7.09753        -9.13844        -1.83831
H          7.33530        -6.30660        -2.19189
H         10.15749        -5.47703         0.25007
H         11.18197        -3.15632         0.51926
