         424
 CSIRO Nanostructure Databank - Neutral Graphene Oxide Data Set
C          1.26497         2.02023        -0.89073
C          1.23413         3.42431        -0.87675
C          2.46558         1.33542        -0.93404
C          2.42383         4.18649        -0.84406
C          1.21530         6.38284        -0.84606
C          1.19584         7.76906        -0.66900
C          2.39176         5.62718        -0.76135
C          2.38969         8.53287        -0.50629
C          1.17929        10.73911        -0.50423
C          1.15432        12.05756        -0.20458
C          2.39159         9.95200        -0.39116
C          2.34051        12.71911         0.45147
C          1.17332        14.96326         0.42169
C          1.18072        16.36316         0.44812
C          2.35931        14.22953         0.34417
C          2.39098        17.07163         0.43797
C          2.42452        18.51058         0.50116
C          3.70606         2.05065        -0.99821
C          3.68219         3.49611        -0.88301
C          4.90467         1.37110        -1.19720
C          4.92450         4.19882        -0.81243
C          3.63657         6.33744        -0.30004
C          3.64297         7.83317        -0.52515
C          4.92978         5.64896        -0.66065
C          4.84152         8.53855        -0.56908
C          3.62853        10.65376        -0.22993
C          3.63418        12.05632         0.03031
C          4.86352         9.95617        -0.40944
C          4.84518        12.76646         0.05918
C          3.60419        14.91720         0.31999
C          3.62087        16.34667         0.38477
C          4.84250        14.20043         0.23992
C          4.85634        17.05334         0.42721
C          3.60778        19.18997         0.53489
C          4.86763        18.49221         0.51128
C          6.14430         2.11876        -1.57445
C          6.14173         3.52476        -1.03024
C          7.43356         1.38941        -1.32668
C          7.38642         4.21038        -0.92928
C          6.09698         6.35397        -0.69260
C          6.10336         7.83010        -0.98538
C          7.39322         5.63613        -0.43070
C          7.38604         8.54227        -0.64042
C          6.10701        10.66540        -0.35216
C          6.09352        12.07213        -0.12115
C          7.35737         9.96609        -0.48176
C          7.32147        12.79282        -0.02674
C          6.06812        14.91126         0.28359
C          6.08096        16.33908         0.39990
C          7.31016        14.20722         0.19031
C          7.32461        17.04511         0.49594
C          6.07986        19.18114         0.55990
C          7.32766        18.49857         0.55521
C          8.60861         2.07994        -1.16850
C          8.58203         3.53250        -1.08415
C          9.89547         1.41278        -1.03253
C          9.90442         4.24345        -1.17288
C          8.63178         6.41215        -0.79532
C          8.58792         7.83375        -0.72903
C          9.85018         5.73289        -0.92341
C          9.86321         8.58974        -1.01223
C          8.58303        10.69252        -0.38951
C          8.56366        12.10101        -0.16115
C          9.84077        10.01224        -0.50808
C          9.79038        12.83381        -0.12377
C          8.53095        14.92672         0.30215
C          8.53455        16.33779         0.48903
C          9.77095        14.22811         0.12666
C          9.82216        17.05855         0.83318
C          8.54292        19.20284         0.52553
C          9.80163        18.54213         0.52363
C         11.03281         2.07787        -0.64540
C         10.92520         3.55273        -0.25996
C         12.31131         1.42142        -0.57020
C         12.24718         4.24272        -0.29071
C         11.09026         6.42339        -0.78943
C         11.11082         7.81707        -0.66744
C         12.39952         5.65330        -0.77715
C         12.30553         8.50897        -0.32261
C         11.03960        10.69974        -0.36464
C         11.04530        12.14200        -0.25978
C         12.30540         9.97559        -0.30627
C         12.24386        12.86836        -0.38244
C         10.98598        14.97424         0.04514
C         11.04906        16.37531         0.28901
C         12.15787        14.29773        -0.38592
C         12.25032        17.08950         0.16434
C         10.99957        19.22786         0.38968
C         12.27302        18.54873         0.31445
C         13.46842         2.07224        -0.19867
C         13.38963         3.49632         0.31073
C         14.74252         1.41674        -0.10550
C         14.70131         4.23318         0.25464
C         13.50561         6.37791        -0.01794
C         13.45220         7.78743         0.08042
C         14.65703         5.64674         0.33894
C         14.56510         8.57689         0.75053
C         13.48299        10.66461        -0.17488
C         13.53294        12.15364         0.00197
C         14.74636         9.91136         0.05674
C         14.90357        12.75114        -0.32400
C         13.22594        15.14069        -0.78193
C         13.40947        16.44235        -0.36627
C         15.09968        14.05681        -0.76285
C         14.74685        17.15166        -0.61963
C         13.48084        19.19735         0.23325
C         14.76918        18.41013         0.27601
C         15.91315         2.08983         0.18468
C         15.92057         3.53340         0.30470
C         17.17184         1.28311         0.43763
C         17.16729         4.26602         0.38083
C         15.88836         6.33079         0.79203
C         15.87593         7.81388         0.93294
C         17.18276         5.63409         0.62505
C         17.17756         8.53160         0.88942
C         16.01582        10.64302         0.34147
C         16.04414        12.11284         0.22995
C         17.17614         9.91407         0.87514
C         17.22002        12.83436         0.45331
C         16.14913        14.90436        -0.33037
C         16.05690        16.34529        -0.32817
C         17.27357        14.23856         0.23138
C         17.22084        17.05513        -0.01264
C         16.01758        19.20640         0.01718
C         17.22853        18.52636        -0.02227
C         18.46508         2.03931         0.18104
C         18.44466         3.56008         0.17356
C         19.73420         1.40242         0.53381
C         19.69977         4.29036         0.43767
C         18.41441         6.38388         0.70982
C         18.41081         7.79521         0.89158
C         19.65728         5.67916         0.58935
C         19.66503         8.53626         0.95878
C         18.39719        10.66328         1.20226
C         18.40027        12.16782         1.03749
C         19.67678         9.94964         1.15140
C         19.69295        12.85784         0.94029
C         18.47738        14.97131         0.46106
C         18.46783        16.37853         0.27619
C         19.69211        14.26746         0.73681
C         19.69218        17.09623         0.41353
C         18.47208        19.20925        -0.03263
C         19.70769        18.54218         0.20437
C         20.92174         2.11776         0.58869
C         20.94011         3.56735         0.52679
C         22.16927         1.43056         0.81346
C         22.16043         4.25829         0.74000
C         20.93013         6.44981         0.34976
C         20.89538         7.86676         0.84291
C         22.18267         5.70660         0.74404
C         22.11632         8.57227         0.97948
C         20.88207        10.68701         1.16151
C         20.88593        12.13668         1.10175
C         22.12455         9.99028         1.11041
C         22.13240        12.84512         1.08395
C         20.91674        14.98083         0.78903
C         20.90599        16.40737         0.66568
C         22.13591        14.26430         0.96767
C         22.15553        17.10895         0.74640
C         20.90190        19.24404         0.28851
C         22.15502        18.61709         0.82474
C         23.35844         2.10261         0.94034
C         23.38881         3.54378         0.91720
C         24.62540         1.34262         1.25534
C         24.62459         4.23585         0.99138
C         23.35052         6.41167         0.93522
C         23.35831         7.85971         0.95337
C         24.63842         5.71227         1.28940
C         24.57598         8.56463         0.94628
C         23.36726        10.70464         1.10793
C         23.36696        12.13668         1.13365
C         24.59342         9.99887         1.00097
C         24.59981        12.85720         1.17688
C         23.37353        14.97698         1.02140
C         23.35361        16.41561         0.87818
C         24.57904        14.27700         1.20354
C         24.62925        17.11851         0.78986
C         23.42981        19.21035         0.28661
C         24.61686        18.53017         0.38194
C         25.89024         2.11028         0.94619
C         25.85907         3.54709         0.88810
C         27.08354         1.43324         0.84724
C         27.08142         4.26574         0.65742
C         25.85063         6.44501         0.76251
C         25.79991         7.82826         0.70592
C         27.07028         5.70924         0.52690
C         26.97015         8.61202         0.28576
C         25.83302        10.73492         0.94110
C         25.84430        12.14327         1.09279
C         27.04847        10.04406         0.63205
C         27.09814        12.87381         1.05450
C         25.83786        15.03358         1.52684
C         25.81101        16.45590         1.00484
C         27.10175        14.26457         1.18446
C         27.07794        17.21557         1.00108
C         25.87968        19.17246         0.09911
C         27.07989        18.56443         0.39610
C         28.32166         2.12489         0.63717
C         28.29508         3.55918         0.49890
C         29.53486         1.43124         0.59462
C         29.51974         4.24684         0.19442
C         28.26227         6.38627         0.23202
C         28.25845         7.84594         0.04085
C         29.50890         5.69391         0.07133
C         29.51969         8.58760         0.15346
C         28.27808        10.72064         0.56429
C         28.33238        12.13989         0.81147
C         29.50998         9.99341         0.31487
C         29.57060        12.80738         0.74146
C         28.36945        14.99588         1.30709
C         28.38984        16.49067         1.14757
C         29.66231        14.24351         1.05546
C         29.63248        17.15214         0.66937
C         28.34669        19.19546         0.17616
C         29.55921        18.54617         0.31692
C         30.76385         2.10887         0.36336
C         30.71552         3.52161         0.09818
C         32.00024         1.43232         0.35248
C         31.95260         4.18542        -0.32324
C         30.69250         6.42182        -0.14232
C         30.72912         7.86197        -0.01156
C         31.94166         5.71145        -0.45720
C         31.95146         8.56930        -0.08862
C         30.75150        10.69128         0.29315
C         30.78270        12.11352         0.45558
C         31.96338         9.96891         0.08156
C         32.01393        12.82843         0.33757
C         30.86232        14.99873         0.63600
C         30.82128        16.41766         0.52514
C         32.03462        14.26272         0.34157
C         32.11418        17.18509         0.32734
C         30.81605        19.33339        -0.01043
C         31.92164        18.42486        -0.56188
C         33.24240         2.11436         0.17953
C         33.24156         3.52598        -0.08762
C         34.47618         1.44128         0.23808
C         34.43876         4.25486        -0.15432
C         33.23208         6.40394        -0.33725
C         33.20965         7.88741        -0.57384
C         34.42471         5.70747        -0.26535
C         34.46942         8.57129        -0.12724
C         33.21992        10.67141         0.10880
C         33.23945        12.10631         0.17247
C         34.43084         9.95296         0.10582
C         34.45576        12.79238        -0.05918
C         33.25381        14.94696        -0.01766
C         33.28080        16.35044        -0.15668
C         34.44508        14.20455        -0.26898
C         34.44518        17.00353        -0.59850
C         33.22791        19.14864        -0.74503
C         34.42808        18.45245        -0.80389
C         35.70020         2.13894         0.08336
C         35.68920         3.56820        -0.06325
C         36.94129         1.45614         0.08644
C         36.91676         4.28635        -0.13320
C         35.69042         6.42776        -0.20626
C         35.68199         7.85276        -0.10285
C         36.91250         5.72576        -0.17691
C         36.93646         8.57219         0.03839
C         35.67254        10.69506         0.51126
C         35.70699        12.07015        -0.12660
C         36.93739         9.93292         0.28243
C         36.85147        12.63678        -0.62935
C         35.62728        14.86284        -0.68396
C         35.64030        16.26280        -0.85887
C         36.80419        14.05232        -1.05948
C         36.87165        16.94902        -1.18682
C         35.65194        19.10524        -1.10469
C         36.86173        18.39171        -1.26374
C         38.15352         2.15072        -0.03804
C         38.14989         3.58272        -0.12271
C         39.40947         1.45576        -0.06943
C         39.39170         4.29431        -0.19822
C         38.16699         6.44165        -0.16219
C         38.17954         7.84798        -0.06694
C         39.40585         5.72176        -0.20876
C         39.42847         8.57139        -0.02027
C         38.18702        10.73312         0.37637
C         38.13849        11.83681        -0.79379
C         39.43681         9.95008         0.21550
C         39.39312        12.66745        -0.72621
C         38.07755        14.76791        -1.44908
C         38.08277        16.24953        -1.35603
C         39.40408        13.98649        -1.50204
C         39.30857        16.95606        -1.51316
C         38.06616        19.07609        -1.52771
C         39.29004        18.38624        -1.62797
C         40.59215         2.14063        -0.17674
C         40.61430         3.56951        -0.23464
C         41.84015         4.28755        -0.31707
C         40.65185         6.42793        -0.25518
C         40.66380         7.85240        -0.18613
C         41.85885         5.66323        -0.32893
C         41.87431         8.63017        -0.29065
C         40.69940        10.74508         0.36213
C         40.58647        12.13934        -0.26095
C         41.90148         9.97414        -0.10484
C         41.76270        12.94129        -0.23413
C         40.60647        14.85170        -1.21439
C         40.56788        16.26581        -1.50067
C         41.75854        14.25576        -0.69518
C         41.74926        17.00941        -1.68506
C         40.51312        19.08852        -1.83000
C         41.71333        18.40015        -1.87232
O         31.84846         4.84147        -1.64219
O         37.16397        14.28012        -2.49533
O         27.41888         8.30822        -1.08299
O         29.21502        14.55532         2.43051
O         18.48240         2.77098        -1.08399
O         18.18641        11.55988         2.36599
O         15.77835         6.96728         2.14195
O         27.78089        17.16519         2.31351
O         14.17422        14.59855        -1.65415
O         15.69775        10.00075        -1.02920
O         33.18021         8.03655        -2.04515
H         32.49348         7.42444        -2.38859
O         17.16137         0.84073         1.81178
H         17.11928         1.62894         2.39143
O          3.60028         6.20180         1.18114
H          2.73339         6.55414         1.47715
O         31.46949        17.97929        -1.86946
H         32.20115        17.47805        -2.28781
O         24.63165         0.06110         0.61887
H         24.63663         0.20094        -0.35001
O          9.88599         8.71106        -2.48896
H          8.99910         9.02775        -2.76767
O         40.88853        11.01006         1.81920
H         41.09146        10.14757         2.24172
O         13.50414        12.32595         1.48390
H         13.58709        11.44231         1.90738
O         10.39875         4.05329        -2.52683
H          9.76689         4.47160        -3.14762
O         38.11542        11.10494        -2.03443
H         38.59740        11.64277        -2.70304
O         14.88411        17.88232         1.64013
H         14.85609        18.63982         2.26106
O         35.55958        10.92245         1.95622
H         36.43746        11.27165         2.24638
O         14.78790        17.56014        -2.00004
H         14.70001        16.75092        -2.54799
O         14.09225         8.94203         2.07900
H         14.31407         8.18139         2.66707
O         13.08860         3.35259         1.76813
H         13.74560         2.72136         2.13409
O         24.74722         5.80250         2.76444
H         23.94647         5.37989         3.14186
O         10.41153         3.63162         1.09988
H         11.16889         3.44724         1.70614
O         39.55110        13.52279        -2.89672
H         38.67422        13.67345        -3.32926
O         12.86633         5.59370        -2.17704
H         12.71795         6.47833        -2.57427
O         38.20578        11.49421         1.61531
H         39.14451        11.51444         1.93955
O         31.27241        20.03584         1.14874
H         31.67594        19.37056         1.75444
O         22.15545        18.94223         2.27378
H         22.94706        18.51227         2.66398
O          2.20469        12.44616         1.89693
H          2.22883        11.47178         2.00828
O         32.49748        17.66802         1.65664
H         32.50264        16.89824         2.26433
O          6.08573         7.89871        -2.47227
H          5.21078         7.56799        -2.76997
O          9.92484        16.96824         2.30006
H          9.13892        17.41971         2.67463
O          6.05581         2.26881        -3.06630
H          5.20018         2.71375        -3.25065
O          7.45478         5.53821         1.03926
H          6.63083         5.09765         1.33960
O         25.88557        15.16276         2.99180
H         26.64677        15.76243         3.19095
O         20.99712         6.57225        -1.12705
H         20.97134         5.66255        -1.49511
H          0.31729         1.46348        -0.87617
H          0.25846         3.92761        -0.84784
H          2.48160         0.23695        -0.97134
H          0.26021         5.88297        -1.06314
H          0.22631         8.28292        -0.71088
H          0.26883        10.25709        -0.88906
H          0.21776        12.62049        -0.32456
H          0.20713        14.44338         0.47993
H          0.22999        16.91283         0.50370
H          1.46968        19.05602         0.52914
H          4.89267         0.27562        -1.30468
H          3.61727        20.28855         0.58871
H          7.43397         0.28976        -1.37129
H          6.07578        20.28068         0.60500
H          9.94413         0.33464        -1.25490
H          8.51858        20.30072         0.44341
H         12.36241         0.35692        -0.85224
H         10.98719        20.32616         0.30454
H         14.77915         0.32964        -0.27854
H         13.52315        20.29712         0.28656
H         17.15394         0.35565        -0.18869
H         15.99740        20.30750         0.02882
H         19.73555         0.32746         0.76677
H         18.47226        20.30716        -0.11339
H         22.16315         0.33192         0.86993
H         20.89975        20.33371         0.13042
H         24.62259         1.13781         2.36552
H         23.43378        20.27201        -0.00502
H         27.09124         0.33659         0.93389
H         25.86994        20.19546        -0.30591
H         29.54155         0.34108         0.74181
H         28.34401        20.23729        -0.17928
H         32.01484         0.34622         0.52667
H         30.56583        20.10456        -0.78405
H         34.49423         0.35344         0.40070
H         33.21409        20.22913        -0.95262
H         36.95168         0.35993         0.17965
H         35.65827        20.19878        -1.22390
H         39.40599         0.35757        -0.01205
H         38.05440        20.17209        -1.61984
H         41.54746         1.59632        -0.20657
H         42.78444         3.72524        -0.35920
H         42.82689         6.17980        -0.37761
H         42.80918         8.12188        -0.56728
H         42.85314        10.51301        -0.21804
H         42.67117        12.54435         0.23759
H         42.66306        14.86225        -0.54537
H         42.72042        16.49733        -1.71078
H         40.49056        20.18173        -1.94130
H         42.65382        18.94541        -2.03387
