         252
 CSIRO Nanostructure Databank - Neutral Graphene Oxide Data Set
C         30.28995        31.75340         0.28468
C         30.42260        32.93333         0.69747
C         30.37664        35.90494         1.46445
C         30.50056        37.14732         1.35204
C         30.38718        40.36610         1.30639
C         30.33438        41.61885         1.33606
C         32.62329        29.03688        -0.59560
C         31.51029        29.58904        -0.40253
C         32.66386        31.69631        -0.13958
C         31.39570        30.96175        -0.09731
C         32.72662        33.08339         0.27689
C         31.57007        33.74166         0.75651
C         32.75213        35.93008         0.85683
C         31.64834        35.04358         1.49159
C         32.83604        37.32352         1.52895
C         31.52161        38.11571         1.30500
C         32.74438        40.30405         1.41102
C         31.51879        39.50844         1.32734
C         32.72919        41.71484         1.43027
C         31.47228        42.45421         1.37669
C         32.72059        44.44544         1.04997
C         31.63112        43.86349         1.24769
C         35.34144        27.45070        -1.04228
C         35.16957        28.84387        -0.61558
C         33.90955        29.60395        -0.65475
C         35.09117        31.82782        -0.86434
C         33.88069        30.99835        -0.45307
C         35.17179        33.18444        -0.18043
C         34.01936        33.81516         0.26586
C         35.28744        35.92552         0.70827
C         34.07037        35.20043         0.70003
C         35.33259        37.32231         1.33400
C         34.03291        38.11316         0.99045
C         35.34150        40.25912         1.50086
C         34.02010        39.54079         1.53081
C         35.35286        41.75912         1.35342
C         34.02776        42.48655         1.37915
C         35.11824        44.46980         0.26030
C         34.01832        43.90756         0.84285
C         35.34888        45.79332        -0.21967
C         37.79117        27.41593        -1.14597
C         36.45732        26.90438        -1.07073
C         37.79212        28.85985        -0.97147
C         36.50207        29.57620        -0.69347
C         37.76155        31.77245        -0.70148
C         36.45355        31.06443        -0.90209
C         37.71371        33.15400        -0.07248
C         36.44608        33.97581        -0.42739
C         37.74897        36.00872         0.37957
C         36.47973        35.32191         0.27611
C         37.77604        37.41353         0.73486
C         36.56733        38.13485         0.98499
C         37.83279        40.33378         1.20169
C         36.56126        39.51772         1.12084
C         37.72090        41.70495         0.52812
C         36.51882        42.36821         0.63505
C         37.54483        44.27664        -0.79228
C         36.33085        43.64226        -0.08143
C         37.50281        45.72899        -1.29387
C         36.28160        46.37829        -0.78434
C         40.24883        24.60733        -1.22707
C         39.15993        25.26563        -1.18496
C         40.28474        27.35606        -1.30248
C         38.96423        26.65829        -1.19062
C         40.27121        28.86309        -1.15712
C         38.99655        29.56826        -0.86545
C         40.22939        31.66742        -0.40031
C         39.03441        30.98626        -0.56457
C         40.27824        33.15080        -0.40538
C         38.98056        33.94543        -0.36515
C         40.23583        35.96781         0.56738
C         38.95313        35.35568         0.06061
C         40.28925        37.48231         0.27681
C         38.99410        38.16730         0.65332
C         40.26882        40.26293         0.46157
C         39.01116        39.53724         0.74080
C         40.22945        41.70944         0.14508
C         38.90435        42.38994         0.02041
C         40.12272        44.42626        -0.83704
C         38.86056        43.64582        -0.55470
C         40.08699        45.63749        -1.75437
C         38.74967        46.40118        -1.76684
C         40.11380        48.37449        -1.96594
C         38.97850        47.84395        -1.91523
C         42.86902        24.58056        -1.18595
C         41.55647        25.05905        -1.18463
C         42.85954        27.34490        -1.30055
C         41.56903        26.62443        -0.86133
C         42.85366        28.85190        -1.24618
C         41.57294        29.50619        -0.76745
C         42.79403        31.75577        -0.53336
C         41.53386        30.95263        -0.37634
C         42.75630        33.16813        -0.06694
C         41.56351        33.82361        -0.06295
C         42.80643        36.01238         0.37452
C         41.52318        35.30571         0.07940
C         42.78792        37.39461         0.95503
C         41.49507        38.13252         0.96058
C         42.80631        40.39382         1.00699
C         41.51434        39.63074         1.00193
C         42.78916        41.84613         0.56389
C         41.47936        42.53301         0.29010
C         42.75606        44.32105        -1.03918
C         41.45571        43.86870        -0.41432
C         42.75861        45.60726        -1.82830
C         41.40639        46.34239        -2.04318
C         42.71766        48.36836        -1.95826
C         41.41373        47.87333        -2.06538
C         43.94125        25.23153        -1.03400
C         45.34306        27.31585        -0.80749
C         44.17616        26.63151        -1.06759
C         45.45938        28.82503        -0.88108
C         44.16557        29.59498        -1.09189
C         45.40140        31.77471        -0.41461
C         44.10655        31.07490        -0.78156
C         45.26012        33.02929         0.44345
C         44.08797        33.90577        -0.05795
C         45.30652        35.98569         0.55972
C         44.02715        35.20175         0.75683
C         45.31125        37.35244         0.57023
C         44.10378        38.12328         0.98597
C         45.34400        40.33461         0.55179
C         44.11836        39.64127         1.01598
C         45.27247        41.62138         0.05981
C         44.03857        42.41618        -0.01331
C         45.31670        44.25203        -1.16050
C         44.03327        43.65246        -0.60833
C         45.23906        45.81775        -1.14419
C         44.13159        46.35787        -2.05139
C         43.80780        47.80603        -1.70176
C         47.60600        27.38533         0.06110
C         46.59496        26.80385        -0.36962
C         47.76103        28.81602         0.18733
C         46.65225        29.51911        -0.29305
C         47.80899        31.66896         0.48974
C         46.67811        30.99643        -0.20981
C         47.79306        33.08149         0.66891
C         46.55285        33.83413         0.50507
C         47.79214        35.97842         0.64857
C         46.54700        35.21818         0.51692
C         47.81603        37.33131         0.44918
C         46.54891        38.11425         0.14226
C         47.84152        40.20609         0.11773
C         46.65090        39.54509         0.77188
C         47.66931        41.42347        -0.42778
C         46.51775        42.28997        -0.31414
C         47.82474        44.53746        -0.23869
C         46.58169        43.64323        -0.54664
C         47.70862        45.65188        -1.26361
C         46.64235        46.19690        -1.55846
C         50.11289        28.89755         1.14516
C         48.91008        29.47739         0.71720
C         50.15774        31.58917         1.30178
C         48.96447        30.92015         0.84709
C         50.16591        33.02873         1.33652
C         48.97123        33.75465         1.06329
C         50.28999        35.89789         1.09951
C         48.94514        35.24840         1.31449
C         50.33497        37.36970         0.89846
C         49.08090        38.11744         0.59772
C         50.42832        40.29762         0.34742
C         49.16715        39.47725        -0.11432
C         50.46921        41.74754         0.43597
C         49.49733        42.56549        -0.23812
C         50.14976        44.41908         0.93352
C         49.16964        43.89486         0.03815
C         51.17700        29.42602         1.56395
C         52.45829        31.63102         2.02116
C         51.35418        30.82535         1.65986
C         52.41963        32.89020         1.95440
C         51.38220        33.76999         1.62819
C         52.58862        36.05627         1.40619
C         51.43327        35.18668         1.43303
C         52.72080        37.27069         1.20761
C         51.64770        38.07007         0.48657
C         52.50450        40.36492         1.39210
C         51.54204        39.54491         0.77700
C         52.53468        41.59905         1.65065
C         51.47937        42.44106         1.22566
C         51.17736        43.81951         1.34448
O         40.66011        45.63757        -3.08433
O         49.61982        38.10248         1.96214
O         41.63979        29.88703         0.64054
O         42.30671        35.95437        -0.98228
O         45.07033        29.34098        -2.19684
O         42.72190        44.33709        -2.51144
O         37.22414        31.55747        -2.03907
O         42.77251        28.12762        -2.50442
O         39.64690        33.70102        -1.63527
O         46.36702        31.76055        -1.47577
O         37.79440        45.81936        -2.69591
O         42.00061        37.51653         2.18595
O         40.41135        40.71266        -0.93980
O         42.12121        42.66649         1.58383
O         43.38413        31.73365        -1.88933
O         42.02914        40.19962         2.22562
O         34.74510        39.77987         2.77450
O         36.57174        43.47424        -1.52351
O         44.31476        38.85315         2.24268
O         34.89498        42.43495         2.56716
O         48.71821        41.93715        -1.21870
O         35.92062        29.17166         0.59476
O         40.78842        44.86726         0.41838
O         40.33003        28.21339        -2.46606
O         45.00947        46.27170         0.16704
H         45.79216        46.02598         0.72179
O         32.30277        36.19021        -0.51184
H         32.15968        35.32782        -0.95999
O         44.47233        46.25965        -3.40219
H         45.45018        46.26534        -3.49013
O         32.96731        37.24338         2.94211
H         32.52489        36.42477         3.27197
O         46.90088        39.44150         2.17766
H         46.05890        39.17240         2.62095
O         38.06002        40.61326         2.62625
H         37.20403        40.86542         3.03613
O         48.67852        35.42187         2.75242
H         48.83423        36.37658         2.94991
O         44.97092        32.49971         1.75583
H         44.70201        33.25283         2.33682
O         33.95649        38.27352        -0.43651
H         33.41297        37.53871        -0.81725
O         40.15001        35.70900         1.99416
H         40.80011        36.28690         2.46711
O         35.44054        37.10260         2.75406
H         35.29322        37.97099         3.20116
O         47.44806        45.15065         1.01216
H         48.24484        45.58017         1.39745
O         44.38922        34.28845        -1.41001
H         44.16105        33.53029        -2.00135
O         49.30222        39.19421        -1.51540
H         49.20178        40.04241        -2.00179
O         51.81401        37.88729        -0.91135
H         52.60769        38.37597        -1.21093
O         43.87668        34.87917         2.16371
H         43.84085        35.71480         2.67810
O         41.59566        26.68794         0.57725
H         40.84274        26.17403         0.93913
O         45.41933        43.90674        -2.56460
H         45.25908        42.94635        -2.67380
O         36.53307        34.24192        -1.86049
H         35.80227        34.84895        -2.10143
O         34.78008        32.13990        -2.25450
H         35.62082        32.48012        -2.65214
O         40.49207        37.70528        -1.13140
H         39.81319        37.20784        -1.63376
O         46.42326        38.34388        -1.28496
H         46.44780        37.47778        -1.74460
O         37.69730        32.90190         1.34961
H         37.72679        33.76163         1.82349
O         31.96495        34.76578         2.85502
H         31.29570        34.14569         3.21419
