         276
 CSIRO Nanostructure Databank - Neutral Graphene Oxide Data Set
C        -11.16472         0.81744         0.69014
C        -10.07083         1.54736         0.01373
C         -8.89716         0.77506        -0.50293
C         -7.58500         1.51359        -0.81349
C         -6.33633         0.80223        -0.29867
C         -5.08423         1.48482        -0.61708
C         -3.77647         0.74615        -0.65890
C         -2.53808         1.59430        -0.27561
C         -1.20656         0.83713        -0.30907
C         -0.08536         1.34573        -1.19299
C          1.23847         0.71968        -0.74172
C          2.32250         1.44330        -0.35345
C          3.64955         0.87160         0.06119
C          4.97691         1.62413        -0.10670
C          6.26527         0.83595         0.07428
C          7.58666         1.51190        -0.02497
C          8.73809         0.82430        -0.25910
C         10.04158         1.39875         0.27011
C         11.27061         0.65520        -0.18894
C         -9.92720         3.00148         0.22986
C         -8.79894         3.69179        -0.09400
C         -7.56919         3.01058        -0.47381
C         -6.38056         3.70534        -0.52478
C         -5.06781         2.97151        -0.30792
C         -3.87607         3.63922        -0.96374
C         -2.58191         2.87715        -1.11139
C         -1.31934         3.64142        -1.47888
C         -0.02619         2.87452        -1.38419
C          1.25228         3.61121        -1.14032
C          2.14345         2.91493        -0.14990
C          4.20783         3.73045        -1.40906
C          5.18399         2.99127        -0.67263
C          6.47463         3.66904        -0.45176
C          7.56519         2.97064         0.34721
C          8.90596         3.65806         0.20858
C         10.07439         2.89415         0.13165
C         -8.83558         5.20180         0.04954
C         -7.50296         5.91440        -0.05747
C         -6.29781         5.16466        -0.37644
C         -5.07797         5.82671        -0.44706
C         -3.83807         5.12481        -0.87206
C         -2.48870         5.74331        -0.67881
C         -1.29034         5.09819        -1.20438
C         -0.00107         5.84160        -1.20833
C          1.33340         5.10949        -1.30322
C          2.69052         5.83092        -1.15627
C          4.01850         5.11696        -1.17901
C          5.24290         5.95574        -0.79223
C          6.53445         5.15384        -0.61440
C          7.75915         5.94314        -0.14100
C          8.93701         5.05608         0.18263
C         -7.47148         7.26337         0.17295
C         -6.28436         8.07427        -0.13255
C         -5.00560         7.29505        -0.41425
C         -3.71956         7.96749        -0.21264
C         -2.48326         7.21907        -0.28092
C         -1.21394         8.00074        -0.38920
C          0.05093         7.28434        -0.73766
C          1.28755         7.67715         0.08202
C          2.62208         7.20822        -0.51489
C          3.86112         7.77004         0.14816
C          4.94088         6.75088         0.49499
C          6.15409         7.39528         1.14218
C          7.41273         6.94583         0.93375
C         -6.14469         9.48720         0.32282
C         -4.94460        10.05277         0.53738
C         -3.68642         9.22256         0.62893
C         -2.37642         9.95982         0.59946
C         -1.18883         9.30619         0.33310
C          0.08224         9.87190         0.61436
C          1.29402         9.14458         0.51475
C          2.45441         9.69746         1.03220
C          3.75108         9.00981         0.97848
C          4.76172         9.22134         2.03947
C          5.88817         8.47698         2.09185
C        -11.17830        -0.53025         0.76853
C        -10.07012        -1.36529         0.32724
C         -8.85520        -0.76150        -0.38000
C         -7.59315        -1.21241         0.40837
C         -6.33273        -0.67086        -0.24819
C         -5.05442        -1.46889        -0.32013
C         -3.68448        -0.78960        -0.59048
C         -2.53116        -1.27685         0.29157
C         -1.19528        -0.61545         0.02629
C         -0.00571        -1.46683        -0.24802
C          1.25901        -0.79302        -0.86466
C          2.48808        -1.39288        -0.24471
C          3.69161        -0.66366         0.29372
C          4.95518        -1.28092        -0.42583
C          6.25059        -0.64579         0.06834
C          7.49645        -1.37548        -0.36072
C          8.72222        -0.60076        -0.70423
C         10.01416        -1.35607        -1.04180
C         11.25571        -0.62043        -0.59416
C        -10.05817        -2.69424         0.62280
C         -8.82298        -3.47650         0.35241
C         -7.55426        -2.72522         0.67016
C         -6.28975        -3.51285         0.71491
C         -5.02312        -2.97854         0.02622
C         -3.78210        -3.50612         0.74978
C         -2.51790        -2.69491         0.74745
C         -1.20320        -3.43791         0.80510
C         -0.00278        -2.75955         0.20229
C          1.21589        -3.58080         0.00057
C          2.53110        -2.83669        -0.23108
C          3.82597        -3.54522         0.15069
C          5.03773        -2.81914        -0.41183
C          6.32839        -3.56715        -0.28446
C          7.58651        -2.81853         0.09174
C          8.86405        -3.53010        -0.30626
C          9.96401        -2.83367        -0.66066
C         -8.77851        -4.93975         0.05542
C         -7.53800        -5.74569         0.27134
C         -6.33993        -5.05508         0.89532
C         -5.02523        -5.70545         0.47545
C         -3.76640        -5.00051         0.90198
C         -2.48635        -5.75361         0.76717
C         -1.22613        -4.95642         0.86700
C          0.03645        -5.74911         0.67598
C          1.31391        -4.98542         0.52251
C          2.58948        -5.73884         0.32983
C          3.76793        -5.01966        -0.33422
C          5.05560        -5.77320        -0.02137
C          6.34400        -5.03562         0.04908
C          7.61398        -5.79956        -0.12919
C          8.93479        -5.03155         0.00968
C         -7.50437        -7.08194         0.07404
C         -6.33041        -7.92999         0.54538
C         -5.01720        -7.17963         0.35469
C         -3.73754        -7.91989         0.68646
C         -2.49274        -7.08048         0.43795
C         -1.28622        -7.79097        -0.16177
C          0.01876        -7.18794         0.31182
C          1.25251        -7.86065        -0.31336
C          2.57195        -7.27156         0.34352
C          3.74753        -7.93142        -0.35473
C          5.04692        -7.20589        -0.45958
C          6.34697        -8.01991        -0.43063
C          7.58262        -7.15011        -0.22200
C         -6.20507        -9.28923        -0.10026
C         -5.00818        -9.90027        -0.26608
C         -3.72283        -9.29309         0.04906
C         -2.54049        -9.96887        -0.09768
C         -1.25845        -9.30373         0.02518
C         -0.06672        -9.98812         0.08308
C          1.24527        -9.35964        -0.01015
C          2.42231       -10.04289         0.10289
C          3.78574        -9.45758        -0.25335
C          4.95911        -9.81287         0.65537
C          6.12526        -9.14297         0.59208
O          0.96307         3.02669        -2.45567
O          1.76397        -3.46004        -1.34035
O          4.18952        -7.41941        -1.62702
O         -4.11037         4.44327        -2.14164
O          1.23355        -7.60069        -1.67069
O         -6.82839        -2.91230         1.93231
O         -2.71086        -1.56481         1.69343
O         -5.81729         7.92511        -1.51186
O         -0.56374         8.17656        -1.70115
O          6.24122         0.02668         1.34926
O          7.06651         3.15124         1.74966
O         -8.76397        -1.23810        -1.73094
O         -4.96938        -6.34399        -0.83260
O          5.71313        -3.32847        -1.60358
O         -9.94660         1.18169        -1.42280
O          2.22959        -5.19131         1.64266
O          0.11353        -6.82219         1.70333
O          5.63589        -5.46016         1.27735
O         -5.91719        -1.32066        -1.50897
O         -4.40147         1.15235        -1.90401
O         -1.04656        -4.12701         2.07440
O          6.91687         4.30280        -1.73685
O         -4.01114        -4.12971         2.05437
O         -2.15044         2.93789        -2.48486
O          2.67513         7.08382        -1.94068
O         -2.33352         6.14471         0.76359
O          4.22553         1.60976         1.17235
O          4.34262         9.00904        -0.40375
O         -0.80979         0.42108         1.02420
O          2.54890         3.52790         0.82201
O          0.67833         5.58057        -2.50150
O          7.73140        -0.99220        -1.74462
O          4.10538        -9.98525        -1.57248
H          3.51433        -9.52761        -2.21117
O          5.46514         6.91455        -1.83602
H          5.70810         6.43442        -2.65402
O          7.65873         2.15065         2.60672
H          7.04469         1.37370         2.51346
O         -7.41411         1.44026        -2.25280
H         -7.70785         0.54582        -2.54117
O         10.14445        -1.36330        -2.49280
H          9.24052        -1.50022        -2.85839
O         -9.49790         5.57066         1.27000
H         -8.97238         5.22764         2.02129
O         -0.42144         0.81957        -2.48556
H          0.20321         1.19820        -3.14204
O         -8.72739        -3.98654        -1.04935
H         -8.92008        -2.20911        -1.75620
O         -1.36086        -7.53533        -1.58183
H         -0.42578        -7.62901        -1.94544
O         -4.90078         3.13632         1.13171
H         -5.53656         2.54360         1.58474
O         -7.69969        -0.54165         1.68592
H         -7.25270        -1.11543         2.35279
O          4.40220         5.79464         1.42774
H          4.25208         6.22830         2.29304
O         -6.45959        -5.32609         2.31814
H         -5.73788        -4.82398         2.76807
O          8.21186         6.72051        -1.28613
H          8.27126         6.09769        -2.04309
O         -3.26636        -1.22414        -1.89867
H         -3.84822        -0.76377        -2.54784
O         -3.76924        -8.12929         2.12775
H         -3.01601        -8.70694         2.37192
O         -2.70646         2.03033         1.08286
H         -2.16699         1.43482         1.65976
O          6.55061        -8.64690        -1.71097
H          5.73848        -9.18811        -1.89579
O          4.06447        -3.42752         1.55702
H          3.39381        -3.95838         2.05156
O          1.27743        -1.06607        -2.28966
H          1.38105        -2.04277        -2.40270
O          3.74184        -0.88546         1.70271
H          4.30289        -0.17226         2.09156
O         -4.97354        -3.65808        -1.24689
H         -5.50958        -3.14076        -1.89190
O         -6.55172        -8.14631         1.96126
H         -6.52910        -7.25919         2.39820
O          9.96428        -5.65998        -0.74364
H          9.68590        -5.70639        -1.68090
O          2.63800        -7.71994         1.69112
H          1.96389        -7.21138         2.20730
O          1.16269         6.90084         1.31075
H          0.33832         7.16555         1.77329
O          4.81008        -0.87129        -1.79880
H          5.41962        -1.42230        -2.34225
O          3.45573         3.01421        -2.27615
H          2.89275         3.58987        -2.83529
O         -3.72154         8.65864         2.00806
H         -4.55758         8.15431         2.10770
O          7.57032        -2.74836         1.54510
H          7.06892        -3.51196         1.90499
O         10.02472         1.14123         1.71445
H          9.24263         1.61572         2.10874
O          3.57052        -5.02846        -1.74675
H          4.37311        -4.66167        -2.18035
H         12.20866        -1.12817        -0.81005
H         12.23564         1.14283         0.02026
H         11.04718         3.40807         0.08672
H          9.92122         5.55030         0.14959
H          8.25314         7.42773         1.45714
H          6.66437         8.70560         2.83790
H          4.59401        10.03230         2.76336
H          2.41261        10.69816         1.49012
H          0.12555        10.89210         1.02526
H         -2.34462        10.95704         1.06544
H         -4.88047        11.11537         0.81751
H         -7.06126        10.09544         0.37605
H         -8.37672         7.76797         0.54395
H         -9.48403         5.59435        -0.78062
H        -10.79739         3.55480         0.61568
H        -11.99720         1.40427         1.10644
H        -12.01984        -1.04183         1.26038
H        -10.92148        -3.17311         1.10997
H         -9.73511        -5.50640         0.09021
H         -8.40151        -7.59877        -0.30487
H         -7.12828        -9.81877        -0.38192
H         -4.97956       -10.91043        -0.70520
H         -2.55225       -11.02878        -0.40015
H         -0.09567       -11.08752         0.16646
H          2.39565       -11.12949         0.29094
H          4.84457       -10.64960         1.36225
H          6.96503        -9.44642         1.23667
H          8.54589        -7.68013        -0.30357
H          9.23968        -5.10903         1.09206
H         10.88833        -3.40100        -0.86190
