         232
 CSIRO Nanostructure Databank - Neutral Graphene Oxide Data Set
C        -11.11022         0.82368         0.29833
C         -9.91749         1.58966         0.03769
C         -8.71439         0.84654        -0.37876
C         -7.37494         1.59162        -0.30415
C         -6.12614         0.79957        -0.38199
C         -4.91945         1.46685        -0.37580
C         -3.73273         0.82661        -1.06222
C         -2.41167         1.49567        -0.74177
C         -1.24607         0.79387        -0.87525
C          0.02985         1.50401        -0.66561
C          1.33306         0.79407        -0.85202
C          2.53833         1.58951        -1.25059
C          3.77638         0.80336        -1.51572
C          5.11645         1.47147        -1.57140
C          6.34171         0.68930        -1.20248
C          7.65263         1.45111        -1.29927
C          8.81975         0.66658        -0.75298
C         10.06656         1.40583        -0.54752
C         11.29197         0.61198        -0.59328
C         -9.86590         2.96391         0.12849
C         -8.61481         3.69298         0.18539
C         -7.39174         2.96323         0.17623
C         -6.11842         3.57273         0.56267
C         -4.83564         2.81269         0.21471
C         -3.58191         3.60852         0.02578
C         -2.39891         2.94063        -0.57867
C         -1.26159         3.68432        -0.82775
C          0.04238         3.01126        -0.75023
C          1.32100         3.74175        -0.98855
C          2.54506         2.96886        -1.26995
C          3.83456         3.72556        -1.47411
C          5.20122         2.99648        -1.70198
C          6.41525         3.65261        -0.99998
C          7.48319         2.73100        -0.42584
C          8.78148         3.46742        -0.14532
C         10.02890         2.75258        -0.28141
C         -8.62502         5.08742         0.37495
C         -7.43023         5.83923         0.72567
C         -6.07686         5.06365         0.77201
C         -4.89471         5.82292         0.38693
C         -3.63048         5.10413         0.09600
C         -2.60313         5.89344        -0.68882
C         -1.27969         5.16616        -0.89720
C          0.03333         5.89317        -0.74768
C          1.30297         5.10281        -0.79055
C          2.54843         5.88694        -0.74480
C          3.84415         5.15447        -0.98591
C          5.04965         5.68972        -0.26473
C          6.38986         5.04871        -0.46690
C          7.51198         5.53068         0.39782
C          8.73203         4.74247         0.35963
C         -7.35560         7.29733         0.56160
C         -6.15102         7.95478         0.55838
C         -4.90192         7.22425         0.37016
C         -3.68013         7.94943         0.18399
C         -2.47297         7.28370        -0.09885
C         -1.22373         7.89838         0.15645
C          0.02182         7.23694        -0.09665
C          1.21286         7.80287         0.35930
C          2.51486         7.24046        -0.05625
C          3.73687         7.76121         0.56588
C          4.98820         6.97817         0.49271
C          6.29726         7.70375         0.78051
C          7.43778         6.74198         1.01709
C         -6.08391         9.40304         0.72608
C         -4.92381        10.08450         0.69093
C         -3.63882         9.45462         0.23674
C         -2.40288         9.91651         0.95902
C         -1.21944         9.19506         0.83148
C          0.00626         9.68892         1.36292
C          1.22009         9.01887         1.14045
C          2.44578         9.51064         1.66604
C          3.67750         8.85529         1.43426
C          4.89926         9.27707         2.12507
C          6.10234         8.72564         1.87575
C        -11.08469        -0.54164         0.31741
C         -9.88208        -1.30608         0.07772
C         -8.65907        -0.61654        -0.28738
C         -7.46168        -1.29894        -0.50026
C         -6.19837        -0.62681        -0.62156
C         -4.98127        -1.36177        -0.72962
C         -3.72661        -0.68172        -0.87468
C         -2.53369        -1.38884        -0.96370
C         -1.26477        -0.64999        -1.33863
C         -0.01593        -1.43008        -1.00906
C          1.27524        -0.69534        -0.98105
C          2.52478        -1.45235        -1.27332
C          3.78706        -0.69187        -1.30740
C          4.95752        -1.25745        -0.56658
C          6.27551        -0.59440        -0.76523
C          7.50122        -1.46519        -0.58091
C          8.75607        -0.64547        -0.42567
C          9.96960        -1.29345         0.23399
C         11.24643        -0.70914        -0.32230
C         -9.86406        -2.67919         0.27131
C         -8.67654        -3.44265         0.05270
C         -7.51325        -2.79806        -0.67084
C         -6.19698        -3.49573        -0.43116
C         -4.97899        -2.80601        -0.62766
C         -3.74289        -3.52601        -0.65131
C         -2.50492        -2.82779        -0.83340
C         -1.27560        -3.54354        -0.86494
C         -0.03162        -2.80278        -0.94456
C          1.24309        -3.55647        -1.29669
C          2.50679        -2.86252        -0.81553
C          3.61995        -3.44240        -0.30093
C          4.83269        -2.61977         0.05690
C          6.07538        -3.29506         0.60571
C          7.39129        -2.46488         0.62493
C          8.65870        -3.41885         0.49152
C          9.84217        -2.79095         0.16483
C         -8.62209        -4.77643         0.38330
C         -7.41045        -5.54392         0.25577
C         -6.19512        -4.88565        -0.15513
C         -4.98052        -5.63214        -0.22583
C         -3.73595        -4.95353        -0.51498
C         -2.50766        -5.65963        -0.55429
C         -1.25881        -4.98097        -0.70881
C         -0.04326        -5.73467        -0.69908
C          1.23003        -5.05460        -1.01762
C          2.51998        -5.73177        -0.65579
C          3.62299        -4.90611        -0.06130
C          4.84079        -5.58778         0.46621
C          6.07784        -4.77815         0.78640
C          7.36330        -5.52514         0.92596
C          8.58080        -4.79293         0.79134
C         -7.38658        -6.88287         0.64172
C         -6.19087        -7.63623         0.56915
C         -5.01581        -7.01710         0.07382
C         -3.82505        -7.84443        -0.12822
C         -2.49769        -7.13193        -0.47097
C         -1.25810        -7.82645        -0.09806
C         -0.00259        -7.11202        -0.26488
C          1.19420        -7.80611        -0.03359
C          2.49929        -7.17900        -0.26374
C          3.76484        -7.86844         0.16360
C          5.07289        -7.08295         0.26980
C          5.97676        -7.53235         1.46032
C          7.31659        -6.85730         1.27063
C         -6.15187        -9.00777         1.00141
C         -4.98060        -9.72016         1.02482
C         -3.76147        -9.15843         0.52391
C         -2.53243        -9.78800         0.66631
C         -1.30261        -9.13388         0.38116
C         -0.04493        -9.83688         0.83713
C          1.22077        -9.30844         0.17102
C          2.45318        -9.80825         0.90033
C          3.64768        -9.16884         0.88263
C          4.88147        -9.75406         1.40896
C          6.00849        -9.03470         1.57826
O         -5.36179         2.82923         1.58130
O          5.83377        -3.88353         1.91771
O         -3.14832         4.33819         1.23669
O          4.79751         5.68808         1.19255
O          5.82043        -7.27675        -0.94269
H          5.17456        -7.53498        -1.64216
O          0.09764         2.29847         0.55811
O          7.93163         1.80643        -2.65958
H          7.14261         2.28076        -3.03256
O          4.44479         1.02042        -2.79891
O          5.39837        -7.06935         2.70272
H          5.40917        -6.08734         2.73217
O          6.87072         4.78136        -1.81702
O         -6.76477         5.43841         1.99094
O         -1.24106        -0.57157        -2.80730
H         -1.12144        -1.48068        -3.15780
O          1.26227        -9.88354        -1.16636
H          2.02182        -9.45669        -1.63011
O         -0.62273         5.76489        -2.07098
O         -3.46611         9.92207        -1.15883
H         -2.66672         9.47827        -1.51610
O         -7.78868        -3.00323        -2.10850
H         -7.84835        -3.97094        -2.25909
O         -3.93873         1.08346        -2.48965
H         -4.72798         0.57648        -2.77702
O          7.59934        -2.29375        -1.77345
H          7.70906        -1.70127        -2.54808
O          3.73689        -5.28662         1.36711
O          1.53622        -0.05248         0.33958
O          3.27483        -1.33970        -2.52573
H          1.84867        -4.08595        -3.11099
O          6.93501         2.30173         0.84620
H          7.56886         1.68720         1.27510
O          4.55207        -1.41798         0.84109
O         -3.20207         6.04395        -2.00531
H         -2.47014         6.27211        -2.62390
O         -3.29654        -7.80345        -1.49375
O          6.63610         8.46185        -0.42283
H          6.98802         7.83782        -1.09269
O          0.08996        -9.64974         2.25425
H         -0.75198        -9.90601         2.68304
O          5.51415         3.15048        -3.11113
H          5.45932         4.11327        -3.31459
O          3.85963         4.86107        -2.40838
O          1.24643        -3.39566        -2.74654
O          2.55285         7.11316        -1.54109
O          3.33716        -7.98919        -1.23670
O          9.97137        -0.91537         1.64256
H          9.07079        -1.18003         2.00036
O         -8.11416         1.41548        -1.58058
O          7.51731        -1.81062         1.80899
O          2.13972        -5.64526        -2.05477
H         12.15771        -1.32551        -0.34440
H         12.23643         1.10909        -0.86127
H         10.96367         3.30140        -0.09032
H          9.66189         5.22692         0.69637
H          8.30386         7.10814         1.59010
H          6.99379         9.07224         2.41981
H          4.79968        10.06122         2.89071
H          2.42579        10.40499         2.30579
H          0.00289        10.63411         1.92502
H         -2.38607        10.91261         1.42618
H         -4.91376        11.16892         0.87716
H         -7.02094         9.92278         0.97816
H         -8.29529         7.87050         0.54902
H         -9.55867         5.64210         0.19865
H        -10.78886         3.52413         0.34160
H        -12.04324         1.36290         0.51763
H        -12.00317        -1.10004         0.55053
H        -10.76047        -3.19031         0.65419
H         -9.50877        -5.26947         0.81067
H         -8.30635        -7.36036         1.00986
H         -7.08081        -9.46218         1.37456
H         -4.96098       -10.74211         1.43065
H         -2.49659       -10.79466         1.11185
H         -0.13412       -10.93885         0.61654
H          2.37775       -10.79245         1.38757
H          4.87567       -10.83472         1.61866
H          6.92834        -9.51763         1.94075
H          8.24995        -7.42199         1.42206
H          9.51278        -5.30777         1.07939
H         10.69437        -3.39473        -0.19337
