         276
 CSIRO Nanostructure Databank - Neutral Graphene Oxide Data Set
C        -11.20016         0.62261        -0.34726
C        -10.04704         1.47203         0.04132
C         -8.72831         0.77920         0.03884
C         -7.58452         1.46240        -0.21389
C         -6.29298         0.73973        -0.35379
C         -5.00102         1.45195        -0.13427
C         -3.78071         0.63232         0.15394
C         -2.48921         1.37304         0.39372
C         -1.23154         0.72256        -0.09626
C          0.03639         1.46192         0.21141
C          1.30341         0.68612         0.24840
C          2.54133         1.36070        -0.26649
C          3.85451         0.62727        -0.07590
C          5.13346         1.38674        -0.02380
C          6.28100         0.86501         0.80046
C          7.59068         1.56803         0.62460
C          8.91324         0.84886         0.91045
C          9.97630         1.31659        -0.13445
C         11.27986         0.59725         0.14351
C        -10.06937         2.96339        -0.10444
C         -8.78969         3.72981        -0.23685
C         -7.51263         2.96267        -0.52338
C         -6.33083         3.60857         0.24784
C         -4.99335         2.93544         0.10537
C         -3.71472         3.64645         0.40853
C         -2.44167         2.85797         0.58652
C         -1.17070         3.59457         0.33163
C          0.00413         2.94479         0.03993
C          1.26914         3.65296        -0.12533
C          2.49579         2.85827        -0.44572
C          3.80667         3.59379        -0.50116
C          5.09772         2.86837        -0.27893
C          6.35645         3.63170         0.03574
C          7.60485         2.82278        -0.26773
C          8.91001         3.58591        -0.12831
C         10.03802         2.84180        -0.09837
C         -8.74783         5.07765        -0.16345
C         -7.44742         5.85558        -0.28277
C         -6.32967         5.08410         0.48109
C         -5.04988         5.84175         0.76252
C         -3.73119         5.07367         0.87182
C         -2.41680         5.80024         0.89563
C         -1.07694         5.05135         0.76421
C         -0.00444         5.76214        -0.03718
C          1.29279         5.03585        -0.13451
C          2.51607         5.80445        -0.29982
C          3.80713         5.04396        -0.02056
C          5.05600         5.77828        -0.57912
C          6.35291         5.09900        -0.17252
C          7.62495         5.74710        -0.69216
C          8.88903         5.12333        -0.01332
C         -7.53366         7.27181         0.18431
C         -6.32884         8.15414         0.37382
C         -5.03155         7.33040         0.57318
C         -3.72021         7.95875         0.17708
C         -2.43675         7.23992         0.43056
C         -1.13669         8.05093         0.57480
C         -0.01493         7.24375        -0.11020
C          1.29993         7.94609         0.00183
C          2.53173         7.17841        -0.29405
C          3.78305         7.96886        -0.64281
C          5.04308         7.24019        -0.08741
C          6.33898         7.94147        -0.46061
C          7.51067         7.26320        -0.63924
C         -6.11983         9.28131        -0.62154
C         -4.93529         9.92666        -0.72332
C         -3.68587         9.40344        -0.18680
C         -2.48712        10.05945        -0.31889
C         -1.20143         9.45470        -0.02551
C         -0.01215        10.11178        -0.20376
C          1.29046         9.44892         0.06635
C          2.60834        10.12841        -0.07006
C          3.76866         9.42877        -0.23097
C          5.07486        10.07040        -0.27672
C          6.25135         9.39518        -0.43296
C        -11.12993        -0.73155        -0.40256
C         -9.93821        -1.48373        -0.04324
C         -8.77605        -0.67151         0.51523
C         -7.46084        -1.43739         0.32657
C         -6.32534        -0.76953        -0.37354
C         -5.07135        -1.52880        -0.65742
C         -3.78628        -0.79838        -0.30004
C         -2.49196        -1.49406        -0.61043
C         -1.21740        -0.68972        -0.59849
C          0.11126        -1.44569        -0.77733
C          1.22192        -0.84430         0.24501
C          2.61079        -1.48480        -0.01066
C          3.77734        -0.73431         0.56647
C          4.97487        -1.34229         1.25433
C          6.29893        -0.57847         1.35184
C          7.42835        -1.35875         0.69022
C          8.77874        -0.70108         0.89475
C         10.01598        -1.50394         0.51119
C         11.27903        -0.73242         0.32655
C         -9.91984        -2.85632         0.00174
C         -8.74768        -3.65496         0.36341
C         -7.44831        -2.92584         0.41744
C         -6.25838        -3.71382        -0.00717
C         -5.02798        -3.06736        -0.61579
C         -3.77626        -3.61844         0.10124
C         -2.49666        -2.97686        -0.42361
C         -1.22488        -3.65802        -0.03057
C          0.01512        -2.90123        -0.31348
C          1.18378        -3.41974         0.14056
C          2.54935        -2.97672        -0.20501
C          3.66009        -4.00953        -0.25418
C          5.08179        -2.82610         1.49551
C          6.11325        -3.58876         1.01475
C          7.32309        -2.84444         0.51607
C          8.63090        -3.64753         0.46036
C          9.77777        -2.81243        -0.05072
C         -8.72530        -5.01642         0.45916
C         -7.44471        -5.74940         0.83808
C         -6.24251        -5.04320         0.22670
C         -5.02641        -5.86011        -0.14277
C         -3.74441        -5.10805        -0.06050
C         -2.51702        -5.84288        -0.51091
C         -1.25772        -5.19707         0.05995
C         -0.04573        -6.03904         0.03684
C          1.15212        -5.53518         0.51273
C          2.43371        -6.10472         0.37932
C          3.63461        -5.32564         0.48494
C          4.83525        -5.91360         0.86389
C          6.16409        -5.14451         1.00514
C          7.10415        -5.63463        -0.10973
C          8.41696        -4.90608        -0.39258
C         -7.38954        -7.23507         0.49222
C         -6.21057        -7.91634         0.47587
C         -4.91931        -7.14247         0.69449
C         -3.65389        -7.91488         0.34260
C         -2.56071        -7.33625        -0.20051
C         -1.37049        -8.15477        -0.71007
C         -0.03233        -7.42559        -0.49491
C          1.23879        -8.21785        -0.27194
C          2.41321        -7.56584         0.39434
C          3.68228        -8.26320         0.69085
C          4.96563        -7.41929         0.70327
C          5.52880        -7.49222        -0.79505
C          6.82534        -6.72091        -0.85879
C         -6.10238        -9.35010         0.22062
C         -4.93930       -10.02814         0.32863
C         -3.66588        -9.35679         0.80061
C         -2.39978       -10.10863         0.46501
C         -1.31808        -9.56065        -0.11981
C         -0.08547       -10.41018        -0.45793
C          1.24352        -9.70145        -0.20647
C          2.40812       -10.35486         0.01374
C          3.77739        -9.73171         0.29079
C          4.76244        -9.89270        -0.85752
C          5.61380        -8.93386        -1.24878
O         -0.35158         6.47731        -1.27831
O         -5.96736        -1.17315        -1.75173
O         -3.91873        -0.43838         1.12911
O          6.40994         4.53943         1.16968
O         -1.41610        -4.35886         1.24998
O          4.51275        -3.90105        -1.12597
O          3.85545         4.96983         1.37917
O         -3.06778         5.38759         2.12941
O         -5.11248         6.75118         1.90910
O          4.63471         3.23062        -1.62594
O          2.73165        -8.05409         1.77104
O          1.31776         8.61271         1.30683
O          1.14704        -4.31857         1.19712
O         -2.41073         1.94178         1.73388
O         -6.70320         4.16063         1.53986
O          0.92687        -7.64871        -1.59459
O          9.51912        -1.36202         1.94356
O          0.72811         1.19811         1.49309
O         -0.77000         8.15059         1.91343
O          7.13720        -1.91729        -0.62160
O         -7.09223        -2.09539         1.58622
O         -1.31661         0.43747        -1.53730
O          3.88141        -0.74059         2.02692
O          4.78432         0.60123        -1.19706
O          2.70130        -2.04450        -1.32148
O        -10.28486         2.36196         1.19593
O          6.75984         1.80299         1.80404
O         -5.49174         1.21636        -1.49824
O         -2.56619        -2.40323        -1.75162
O         -3.00899         7.23063        -0.91046
O         -4.20284         3.57730        -0.97011
O          2.31856         1.94100        -1.57961
O          4.98550         5.73831        -2.01787
H          5.88766         5.56609        -2.38322
O          8.46023        -4.53507        -1.77425
H          7.78500        -3.83966        -1.93016
O         -3.74800        -9.31232         2.27408
H         -2.83729        -9.19910         2.62003
O          4.04271        -3.34439         2.20590
H          3.47933        -2.59141         2.50968
O          4.99405         7.27701         1.34003
H          4.53145         6.44348         1.66818
O         -2.40636        -5.67503        -1.95332
H         -3.12268        -6.21275        -2.36018
O         -0.12007       -11.66112         0.21859
H          0.17205       -11.52865         1.14331
O         -5.17037        -6.27245        -1.53861
H         -5.19642        -5.42914        -2.05924
O          6.64662        -0.52749         2.74515
H          6.04449         0.10785         3.18904
O          6.75830        -5.58577         2.25990
H          6.23126        -5.20631         2.99417
O          4.57976        -6.85822        -1.67346
H          4.78511        -5.89640        -1.74297
O         -0.51675         4.99934         2.09643
H         -1.25713         4.87610         2.73292
O          4.33906       -10.46900         1.40216
H          5.07839        -9.92588         1.76044
O          8.96056        -4.05863         1.80722
H          9.20003        -3.24221         2.30870
O          7.46014         2.40785        -1.65272
H          7.38632         3.22166        -2.20291
O         -6.55829         8.84244         1.63175
H         -6.36474         8.19552         2.34960
O          3.82120         8.05922        -2.08982
H          4.03826         7.16068        -2.44421
O         -3.91708        -3.28445         1.49976
H         -3.15851        -3.69293         1.97857
O         -1.56275        -8.31124        -2.13564
H         -0.69288        -8.14158        -2.56705
O         -4.94870        -3.52856        -1.98756
H         -5.39020        -2.85343        -2.55267
O         -7.33394        -5.64316         2.28394
H         -6.42647        -5.96218         2.52225
O          9.59842         0.84050        -1.43986
H          8.83309         1.36952        -1.78289
O          7.69610         5.35041        -2.11331
H          8.32184         5.95478        -2.56813
O         -9.04305        -0.54598         1.93032
H         -8.50347        -1.23629         2.38790
O          0.82333        -1.27058         1.55551
H          0.61368        -0.46205         2.08873
O         -7.25673         3.13180        -1.94006
H         -6.48271         2.55332        -2.17155
O         -4.81932        -6.77043         2.09271
H         -4.61227        -7.60878         2.57744
O          8.95363         5.50389         1.35403
H          8.11992         5.20438         1.78848
O         -6.99621         5.86823        -1.66249
H         -7.04989         4.94045        -2.01276
O          5.90134        -8.03510         1.58449
H          6.48298        -7.32600         1.96469
O          0.50040        -1.32489        -2.12777
H          0.07023        -0.52892        -2.51260
O          9.38931         1.25824         2.19008
H          8.67381         1.09476         2.84208
H         12.22454        -1.28299         0.44848
H         12.22829         1.15130         0.07572
H         11.02314         3.32949        -0.01809
H          9.80349         5.53204        -0.51885
H          8.43493         7.83435        -0.83201
H          7.19062         9.96602        -0.50557
H          5.10116        11.16912        -0.19943
H          2.64412        11.21638         0.10276
H          0.00438        11.13901        -0.59978
H         -2.48830        11.09433        -0.69761
H         -4.87359        10.84638        -1.32645
H         -7.01064         9.69249        -1.11754
H         -8.43077         7.56959         0.75142
H         -9.67842         5.64360         0.00167
H        -10.97803         3.45280        -0.52296
H        -12.15055         1.12811        -0.57501
H        -12.02125        -1.30488        -0.70186
H        -10.83631        -3.40625        -0.26789
H         -9.65763        -5.59321         0.35014
H         -8.33662        -7.78227         0.35461
H         -7.01955        -9.88364        -0.07519
H         -4.91228       -11.10949         0.12734
H         -2.34512       -11.15953         0.79740
H         -0.15146       -10.63240        -1.55968
H          2.38787       -11.45634         0.05146
H          4.86251       -10.90596        -1.27715
H          6.36120        -9.15946        -2.02735
H          7.55078        -7.02023        -1.63376
H          9.26748        -5.61250        -0.21505
H         10.44649        -3.20789        -0.82844
