         661
 CSIRO Nanostructure Databank - Neutral Graphene Oxide Data Set
C          6.00013        31.73731         0.76151
C          6.00467        33.10299         0.79959
C          8.36710        27.44964        -0.01466
C          8.32814        28.83442         0.02294
C          7.18036        29.58441         0.42203
C          8.42804        31.70532         0.24404
C          7.18565        30.97726         0.45075
C          8.43092        33.14867         0.37205
C          7.21145        33.86568         0.56636
C          8.38326        36.00618         0.21645
C          7.21174        35.27036         0.53174
C          8.42299        37.44473         0.26133
C         10.73271        23.15369        -0.09425
C         10.71088        24.52937        -0.30250
C          9.53626        25.31844        -0.18913
C         10.78695        27.39559        -0.72399
C          9.54872        26.70746        -0.34468
C         10.72568        28.86501        -0.97852
C          9.48639        29.59091        -0.51115
C         10.88982        31.65084        -0.05624
C          9.57148        31.01878        -0.14843
C         10.90784        33.17853         0.11309
C          9.61679        33.88161         0.14325
C         10.78651        35.97223        -0.49892
C          9.58280        35.27617        -0.02054
C         10.77447        37.48961        -0.52419
C          9.58325        38.17755         0.02078
C         10.89869        40.26781         0.10896
C          9.70002        39.57498         0.29748
C         11.03263        41.67158         0.41532
C         13.21361        18.88951         0.30175
C         13.22620        20.29975         0.19934
C         11.99595        21.03700         0.02573
C         13.21712        23.20562         0.29379
C         11.95808        22.41369         0.00241
C         13.26122        24.51116        -0.47041
C         11.96240        25.22023        -0.69566
C         13.27093        27.35860        -1.05031
C         11.95894        26.68955        -0.85359
C         13.30250        28.84902        -1.15967
C         12.01453        29.67631        -1.28448
C         13.30417        31.70475        -0.55522
C         12.10851        30.99897        -0.54490
C         13.33884        33.15300        -0.41660
C         12.12867        33.89208        -0.27243
C         13.29711        36.00433        -0.65368
C         12.09229        35.27755        -0.47286
C         13.30782        37.44188        -0.72269
C         12.07113        38.19493        -0.53609
C         13.38375        40.31577        -0.34216
C         12.08706        39.55088        -0.31064
C         13.15611        41.74765        -0.86586
C         12.14780        42.41231         0.05556
C         13.34485        44.56493        -0.00291
C         12.25139        43.80001         0.35940
C         13.41677        45.95047         0.35434
C         15.66593        14.58202         0.40979
C         15.65308        15.94763         0.58534
C         14.33448        16.67235         0.79163
C         15.60696        18.86600         0.68684
C         14.38725        18.17041         0.55027
C         15.66937        20.26284         0.46120
C         14.46945        20.99075         0.25356
C         15.69436        23.12228        -0.01097
C         14.50724        22.43554         0.13070
C         15.74030        24.56215        -0.22275
C         14.53081        25.28314        -0.40655
C         15.76897        27.36443        -0.69391
C         14.52806        26.65909        -0.64908
C         15.80538        28.80329        -0.79616
C         14.51271        29.52857        -0.53159
C         15.74670        31.67956        -0.96024
C         14.55455        31.00930        -0.78861
C         15.77511        33.13576        -0.90033
C         14.53995        33.84934        -0.62375
C         15.75034        35.98341        -0.80609
C         14.53145        35.28092        -0.68730
C         15.75396        37.38989        -0.88920
C         14.52569        38.11854        -0.85079
C         15.78265        40.32990        -0.76146
C         14.50631        39.60770        -1.13852
C         15.78311        41.71594        -0.60586
C         14.54692        42.46795        -1.12630
C         15.76554        44.55935        -0.07599
C         14.50663        44.01953        -0.82848
C         15.85738        46.09026        -0.26460
C         14.57837        46.71621         0.26689
C         15.83672        48.77457         0.79541
C         14.62735        48.07309         0.67961
C         15.86898        50.16208         1.12797
C         18.13245        10.32463        -0.00289
C         18.14352        11.68525         0.12937
C         16.92563        12.47304         0.18706
C         18.13886        14.68003         0.01217
C         16.89912        13.84586         0.27230
C         18.12088        16.03913         0.67917
C         16.89242        16.67416         0.77479
C         18.12777        18.88336         1.11659
C         16.82242        18.11836         1.07021
C         18.10528        20.31899         0.76648
C         16.94366        20.96799         0.45906
C         18.20536        23.18334         0.16201
C         16.98295        22.35072        -0.16215
C         18.23701        24.52244        -0.14707
C         16.98123        25.24332        -0.37681
C         18.24657        27.34213        -0.90512
C         16.97972        26.63078        -0.63163
C         18.26652        28.81676        -0.90040
C         17.00459        29.51213        -0.88164
C         18.21272        31.64466        -1.15276
C         17.01643        30.95996        -0.99845
C         18.15981        33.09517        -1.59576
C         16.95888        33.81300        -1.05144
C         18.25100        35.99332        -1.15731
C         17.05013        35.25092        -0.62748
C         18.22602        37.39500        -1.18930
C         17.00497        38.08438        -0.96988
C         18.30383        40.23011        -0.52607
C         16.99333        39.51703        -0.61517
C         18.28210        41.70772        -0.47093
C         17.03081        42.41554        -0.40880
C         18.26942        44.50315         0.06067
C         17.08197        43.83887        -0.24974
C         18.31070        45.93710         0.30388
C         17.10231        46.68239         0.34444
C         18.32623        48.74252         0.79990
C         17.09989        48.05738         0.65203
C         18.32113        50.17577         0.98926
C         17.06109        50.87797         1.20052
C         18.26794        53.02048         1.47719
C         17.10591        52.27516         1.55925
C         18.37059        54.39732         1.90515
C         20.79100         6.15563        -0.93844
C         20.72666         7.53607        -0.55410
C         19.49497         8.20239        -0.49888
C         20.67630        10.22093         0.51503
C         19.36014         9.50214         0.13417
C         20.68731        11.68769         0.56119
C         19.44134        12.41145         0.20490
C         20.62085        14.61144         0.76350
C         19.43999        13.90701         0.20844
C         20.61946        15.97782         0.88214
C         19.37658        16.74298         0.83337
C         20.61658        18.89561         0.90493
C         19.38744        18.13778         0.94671
C         20.64204        20.26696         0.83007
C         19.39329        21.04481         0.86908
C         20.75832        23.16903         0.35672
C         19.44504        22.51565         0.60939
C         20.72071        24.57162        -0.00597
C         19.52191        25.21658        -0.20884
C         20.76697        27.42385        -0.46364
C         19.55228        26.61631        -0.69510
C         20.73590        28.82120        -0.68261
C         19.47496        29.50643        -0.91178
C         20.68749        31.63317        -1.19989
C         19.48532        30.95262        -1.08031
C         20.68983        33.07417        -1.51518
C         19.44767        33.85381        -1.41464
C         20.73820        35.96640        -1.38355
C         19.46989        35.24132        -1.31974
C         20.76546        37.43335        -1.39761
C         19.46263        38.17924        -1.61633
C         20.71213        40.22108        -0.92297
C         19.53590        39.55745        -0.99304
C         20.74803        41.57909        -0.33649
C         19.48923        42.34230        -0.27357
C         20.81438        44.45727         0.10804
C         19.52436        43.70764         0.34060
C         20.83258        45.86200         0.65066
C         19.53972        46.61768         0.46940
C         20.80478        48.73272         0.63032
C         19.56412        48.03174         0.63857
C         20.83431        50.18695         1.00361
C         19.50461        50.87956         0.94484
C         20.75831        53.12510         0.80119
C         19.47139        52.35373         0.92140
C         20.75598        54.55604         1.21955
C         19.53970        55.12574         1.84451
C         20.85892        57.11691         2.51658
C         19.66173        56.49623         2.31766
C         20.92002        58.51864         3.07966
C         23.34791         3.43121        -1.46843
C         22.07872         4.06486        -1.30441
C         23.27927         6.16337        -0.87114
C         21.99189         5.43240        -0.99181
C         23.24560         7.61814        -0.54384
C         21.95135         8.25164        -0.24928
C         23.18068        10.29137         0.42279
C         21.95217         9.55862         0.21117
C         23.15318        11.66515         0.71308
C         21.88640        12.36512         0.65698
C         23.12452        14.49331         1.35079
C         21.84676        13.80912         1.00825
C         23.07830        15.97983         1.59425
C         21.95224        16.72199         0.86434
C         23.09926        18.91913         1.58496
C         21.84517        18.16836         1.31150
C         23.21027        20.31089         1.03248
C         21.92363        20.99534         0.66377
C         23.27679        23.09787         0.19663
C         21.92866        22.46433         0.49655
C         23.17590        24.59642         0.39112
C         22.02598        25.27621        -0.33165
C         23.12783        27.53502         0.12389
C         21.96255        26.77624        -0.10032
C         23.14439        28.90200        -0.25851
C         21.96524        29.52968        -0.67839
C         23.21953        31.71456        -0.82760
C         22.01730        30.90414        -1.30595
C         23.17069        33.23063        -0.76325
C         21.98126        33.82087        -1.48992
C         23.15569        36.04613        -1.91780
C         21.92081        35.29169        -1.48269
C         23.25731        37.36711        -1.14213
C         21.94403        38.11455        -1.32533
C         23.25570        40.29831        -1.19357
C         21.95009        39.61210        -1.54240
C         23.27015        41.68266        -0.85847
C         22.04287        42.33556        -0.33637
C         23.24965        44.52803        -0.24186
C         21.99396        43.81386        -0.18978
C         23.25820        45.94568        -0.02238
C         22.06001        46.63619         0.27048
C         23.27277        48.76666         0.29606
C         22.04339        48.05157         0.39261
C         23.27578        50.23629         0.20696
C         21.97108        50.98414         0.37935
C         23.27591        53.06028         0.87264
C         22.04495        52.40722         0.73431
C         23.32897        54.43651         1.25114
C         22.07891        55.20309         1.45804
C         23.38216        57.19971         2.08855
C         22.16759        56.35962         2.42598
C         23.36130        58.60488         2.27892
C         22.17180        59.28373         2.69147
C         23.34766        61.41492         2.52293
C         22.17804        60.66551         2.79975
C         24.53132         4.04573        -1.15639
C         25.76043         6.21221        -0.55799
C         24.51159         5.37760        -0.45522
C         25.74557         7.55883        -0.27103
C         24.48247         8.27159        -0.07305
C         25.69854        10.25762         0.82206
C         24.43972         9.57936         0.34101
C         25.61769        11.75767         0.69360
C         24.41880        12.39870         0.80165
C         25.68166        14.53835         1.37907
C         24.41225        13.91839         0.79033
C         25.63381        15.84729         2.18631
C         24.33885        16.68190         1.98720
C         25.64191        18.98807         1.92670
C         24.37607        18.19789         1.92744
C         25.66407        20.41541         1.48818
C         24.47512        21.08655         1.18818
C         25.65514        23.22428         1.08358
C         24.47184        22.48813         0.92686
C         25.65281        24.72930         1.32086
C         24.35572        25.38644         0.83413
C         25.63703        27.64165         0.74962
C         24.35177        26.87897         0.66678
C         25.57686        29.16384         0.48881
C         24.48229        29.58355        -0.51705
C         25.60019        31.94457        -0.13264
C         24.37717        31.10183        -0.50421
C         25.64923        33.23050        -0.95967
C         24.47708        33.85741        -1.23071
C         25.71981        36.00481        -1.86255
C         24.44550        35.21804        -1.85315
C         25.66220        37.49308        -1.80803
C         24.49398        38.15803        -1.54923
C         25.69778        40.33761        -1.44228
C         24.45856        39.61283        -1.42560
C         25.68309        41.75010        -1.22409
C         24.46442        42.42266        -0.88698
C         25.66853        44.57784        -0.57757
C         24.46216        43.85043        -0.54948
C         25.72047        45.98440        -0.30361
C         24.49231        46.66655        -0.07498
C         25.74636        48.77236         0.19803
C         24.50104        48.07622         0.13527
C         25.73575        50.16756         0.64113
C         24.51686        50.96157         0.49775
C         25.78452        53.04973         0.85258
C         24.52821        52.32540         0.75950
C         25.77348        54.46257         1.04796
C         24.54917        55.12958         1.34962
C         25.76658        57.29507         1.46311
C         24.54622        56.55009         1.64745
C         25.73827        58.69575         1.64245
C         24.55526        59.36264         2.01507
C         24.51439        60.78342         2.15328
C         26.95875         8.33980        -0.19881
C         28.15683        10.41306         0.33520
C         26.95831         9.65704         0.22853
C         28.16120        11.79083         0.60410
C         26.86508        12.56318         0.41892
C         28.16085        14.59625         1.17905
C         26.85232        13.89406         1.14275
C         28.16058        16.03800         1.50348
C         26.91187        16.71272         2.00689
C         28.15773        18.94292         1.48174
C         26.92695        18.21379         1.93331
C         28.15140        20.42958         1.52250
C         26.90391        21.11981         1.41820
C         28.13033        23.25015         1.10572
C         26.89288        22.53801         1.25223
C         28.11704        24.69914         0.87638
C         26.93756        25.43729         0.91310
C         28.10624        27.57840         0.49895
C         26.93611        26.88954         0.70884
C         28.11306        28.95878        -0.15531
C         26.88366        29.80554         0.09067
C         28.16977        31.92279        -0.12267
C         26.88667        31.13390        -0.17565
C         28.19822        33.20258        -0.90841
C         26.95390        33.79638        -1.51160
C         28.15288        36.03771        -1.41416
C         26.97641        35.32298        -1.49378
C         28.18630        37.48771        -1.58718
C         26.95827        38.22032        -2.10311
C         28.14682        40.36287        -1.51212
C         26.93042        39.66530        -1.65415
C         28.12965        41.77407        -1.31707
C         26.91726        42.46007        -1.25218
C         28.14685        44.70457        -1.12973
C         26.87821        43.93111        -1.10804
C         28.24682        45.95386        -0.28718
C         26.94924        46.71316        -0.26696
C         28.24521        48.84089        -0.00872
C         26.97593        48.09791         0.00437
C         28.27395        50.22594         0.21255
C         27.07566        50.93369         0.67595
C         28.23564        53.12495         0.45744
C         27.01320        52.39137         0.63799
C         28.20025        54.53236         0.60349
C         26.99999        55.21018         0.93556
C         26.96019        56.61447         1.11063
C         29.37083        12.46197         0.85294
C         30.65400        14.52901         1.27406
C         29.44799        13.85315         1.14157
C         30.77535        15.94770         1.65305
C         29.43925        16.72518         1.88394
C         30.69125        18.95131         1.90347
C         29.45483        18.19175         1.59674
C         30.64338        20.44105         1.76956
C         29.35625        21.13367         1.44626
C         30.61127        23.22387         0.84556
C         29.33974        22.53467         1.16793
C         30.58501        24.70023         0.76853
C         29.39723        25.37917         0.70447
C         30.60219        27.56108         0.07104
C         29.42143        26.89346         0.82721
C         30.66922        29.05113         0.43663
C         29.40158        29.75199         0.00823
C         30.68442        31.80870        -0.43907
C         29.43030        31.09265        -0.23268
C         30.64891        33.14836        -0.79640
C         29.39550        33.86152        -1.03399
C         30.59583        36.00098        -1.29347
C         29.41788        35.30478        -1.28802
C         30.57700        37.45787        -0.90858
C         29.36073        38.20299        -1.40261
C         30.62340        40.36881        -1.29552
C         29.40738        39.64542        -1.44446
C         30.68286        41.78049        -1.26603
C         29.40438        42.49418        -0.92834
C         30.70291        44.68403        -1.23352
C         29.42068        43.94276        -1.34677
C         30.68104        46.12197        -0.90300
C         29.48386        46.77319        -0.59836
C         30.69969        48.91065        -0.45080
C         29.46746        48.17200        -0.35295
C         30.67232        50.31806        -0.29120
C         29.47439        50.99847         0.01952
C         29.43361        52.41322         0.17908
C         31.91541        16.77542         1.30520
C         33.20335        18.98705         1.34137
C         32.02696        18.17039         1.72685
C         33.19517        20.34332         1.28155
C         31.95794        21.12853         1.54456
C         33.17407        23.27771         1.26980
C         31.91889        22.51538         0.98242
C         33.13935        24.77397         1.19441
C         31.89853        25.39660         0.62988
C         33.15643        27.63951         0.53465
C         31.93368        26.85249         0.30489
C         33.17962        29.01554         0.24254
C         31.95003        29.71759        -0.00683
C         33.20465        31.74667        -0.48004
C         31.95009        31.07933        -0.33332
C         33.21817        33.09020        -1.08466
C         31.89334        33.80030        -1.25641
C         33.15857        36.05919        -1.22501
C         31.88495        35.29311        -1.43205
C         33.06358        37.51660        -0.97709
C         31.88667        38.17496        -1.09846
C         33.19017        40.38446        -1.13535
C         31.88899        39.65121        -1.03396
C         33.21466        41.82331        -1.57485
C         31.90966        42.51882        -1.25366
C         33.18940        44.64069        -0.97461
C         31.94891        43.91008        -1.10760
C         33.15484        46.04921        -0.89615
C         31.93935        46.81131        -0.84434
C         31.91875        48.20639        -0.65601
C         34.40251        21.09523         0.72314
C         35.60655        23.30209         0.99988
C         34.45800        22.57525         1.07121
C         35.63473        24.76720         1.04437
C         34.41014        25.48557         1.03625
C         35.67349        27.53707         0.44063
C         34.39689        26.99030         1.10103
C         35.69254        29.04769         0.37138
C         34.43224        29.73653         0.21173
C         35.67757        31.84327        -0.20021
C         34.42075        31.10748        -0.14454
C         35.70365        33.16989        -0.52304
C         34.52233        33.89163        -1.13846
C         35.28303        36.08575        -0.06199
C         34.33472        35.34236        -0.68524
C         35.49756        37.53723        -0.24004
C         34.31313        38.27311        -0.71448
C         35.71088        40.32145        -0.90093
C         34.46503        39.60338        -1.40293
C         35.62562        41.75316        -0.78208
C         34.45989        42.50716        -1.02296
C         34.41039        43.90392        -0.85389
C         36.86613        25.43798         0.99371
C         38.17309        27.59517         0.51642
C         36.93724        26.94219         1.08979
C         38.17187        28.94546         0.25299
C         36.90900        29.68851         0.26159
C         38.19814        31.71790        -0.46359
C         36.97203        31.19276         0.26858
C         38.12639        32.96252        -1.01471
C         37.00739        33.81825        -0.69156
C         38.40738        35.99943        -0.27729
C         37.26279        35.07467        -0.21052
C         38.16501        37.35453        -0.29420
C         36.86702        38.05339        -0.76231
C         36.83576        39.57561        -0.59903
C         39.41491        29.67153         0.04362
C         40.73083        31.74243        -0.14191
C         39.46276        31.01930        -0.26439
C         40.96835        33.09233        -0.11770
C         39.99546        34.09388        -0.53578
C         39.72220        35.34719        -0.04862
O         22.41319        13.82467         2.41425
O         30.15071        16.23843         2.98710
O         27.32721        44.72577        -2.31422
O         26.46990        50.37312         1.89309
O         25.17824        35.36334        -3.12203
O         27.18666        17.51151         3.19231
O         19.87389         9.54554         1.52915
O         31.43357        18.48158         3.03511
O         32.16575        25.81888        -0.76364
O         14.82406        42.30744        -2.51838
O         31.37598        21.07760         2.87784
O         17.39854        18.53343         2.35237
O         19.35617        22.01168         2.00387
O         13.51341        28.05763        -2.35167
O         22.78042        20.34626        -0.38400
O         18.99377        26.76038        -2.04849
O         24.90734        18.78096         3.17324
O         22.34286        16.79480        -0.48185
O         30.07601        44.31612        -2.57191
O         19.91510        52.88865        -0.39076
O         28.12838        15.65738         0.09726
O         23.31056        16.30404         2.97410
O         22.45009        50.67751        -0.95100
O         21.55198        33.27157        -2.77820
O         21.35434        55.47139         0.22213
O         31.34919        22.62174        -0.34774
O         32.70317        35.71605        -2.58619
O         17.70890        39.67364         0.69767
O         32.60241        40.18662         0.17133
O         19.74728        13.17990        -1.04472
O         23.26067        25.01100         1.77650
O         28.84879        18.45467         0.28398
O         36.28658        35.50972         0.70489
O         12.67170        24.49913        -1.79493
O         11.09905        32.29429         1.26128
O         23.43252         7.13123        -1.94809
O         24.85076        27.39304         1.96923
O         39.20450        33.61492        -1.61191
O         21.55469        41.66520         0.91125
O          9.69087        29.24702        -1.93811
O         32.51087        33.08795        -2.37784
O         10.53587        36.71328        -1.74529
O         33.01518        24.07943         2.49250
O         22.14717        18.63357         2.66884
O         34.73439        38.35544         0.69919
O         13.83838        40.44884         1.03207
H         13.90501        39.55396         1.42560
O         12.46847        41.69188        -2.12364
H         13.14610        41.96442        -2.80184
O         14.25830        29.38279         0.91212
H         14.91997        29.92215         1.39511
O         34.35471        20.98729        -0.71454
H         33.56914        21.47686        -1.03926
O         17.96832        33.04244        -3.05903
H         18.75286        32.59655        -3.44511
O         23.41058        37.03941         0.26072
H         23.36879        37.86792         0.78214
O         22.97039        33.60121         0.62643
H         23.77969        33.30525         1.11838
O         36.85044        37.76972        -2.19011
H         36.14722        38.31653        -2.62166
O         22.26686        30.65762        -2.73211
H         22.14191        31.53047        -3.18390
O         14.32247        39.70504        -2.56173
H         14.53231        40.65439        -2.81351
O         20.93799        45.70325         2.12602
H         20.33193        44.95129         2.36101
O         35.67785        27.05352        -0.92430
H         34.89879        27.42682        -1.38796
O         21.81836        39.82363        -2.98455
H         20.99432        39.35549        -3.27541
O         26.80925        12.90159        -1.01659
H         27.52486        13.55165        -1.19267
O         33.34907        41.81098        -3.03367
H         33.25530        42.73392        -3.35384
O         17.12314        22.07313        -1.60617
H         16.95852        22.91074        -2.09067
O         11.94237        30.08072        -2.67125
H         12.15330        29.28628        -3.21285
O         19.74547        59.26129         2.75132
H         19.70432        59.35532         1.77765
O         21.21022        50.21444         2.44376
H         20.62910        49.58052         2.91721
O         24.42014        14.33899        -0.60081
H         25.18803        13.89283        -1.03985
O         22.89599        36.39311        -3.29581
H         23.67968        36.10691        -3.82437
O         29.62107        27.07192         2.25810
H         28.82797        26.72277         2.71766
O         34.90184        34.02234        -2.52977
H         34.08286        34.28232        -3.02022
O         37.15989        31.57612         1.67569
H         36.49271        31.09520         2.20949
O         30.43145        37.42711         0.56916
H         30.83763        38.24542         0.92980
O         14.33483        44.64186        -2.11654
H         14.54815        43.91348        -2.77619
O         37.01938        27.24221         2.51302
H         36.10898        27.16764         2.89417
O         24.88549        29.15899        -1.83422
H         24.21063        29.48767        -2.47088
O         22.40934        55.75891         3.73741
H         22.63954        56.47542         4.36513
O         22.26282        25.13338        -1.75331
H         21.48980        25.49686        -2.23543
O         30.34671        27.48029        -1.34438
H         30.81619        26.67514        -1.67699
O         25.65799        15.39701         3.54869
H         25.44660        16.16273         4.12566
O         24.34327         5.07568         0.97856
H         23.62874         4.40821         1.05818
O         29.36439        42.55529         0.54020
H         29.50512        41.64851         0.88613
O         23.56648        22.85090        -1.20074
H         23.41590        21.88589        -1.35563
O         27.99264        28.65381        -1.58215
H         28.82887        28.20185        -1.86010
O         27.00303        33.39209        -2.91711
H         26.35022        33.95693        -3.40007
O         25.79424         9.99149         2.26389
H         25.75647         9.01949         2.38945
O         34.59327        39.36865        -2.82544
H         34.37655        40.21412        -3.28906
O         30.73568        29.17845         1.88836
H         30.60519        30.12505         2.10845
O         13.29920        16.07037         0.01064
H         13.54869        16.13798        -0.93367
O         17.27439        35.20034         0.84540
H         17.32676        36.12834         1.16203
O         19.50749        43.43012         1.81350
H         20.20289        42.73884         1.95352
O         28.44887        45.45939         1.07882
H         28.50997        46.23477         1.67605
O         16.04240        46.46625        -1.64969
H         15.33331        46.00532        -2.17248
O         25.65897        24.84183         2.77517
H         24.71655        24.83579         3.06394
O         27.10450        38.24405        -3.56445
H         26.33685        38.72983        -3.93380
O         19.34983        38.40410        -3.06232
H         19.35263        37.52720        -3.50349
O         18.04561        15.02274        -1.40723
H         18.57971        14.34676        -1.89015
O         28.21282        32.38619         1.28972
H         27.29418        32.67451         1.52205
O         13.14349        23.59377         1.70362
H         13.15109        22.77399         2.24149
O         25.41480        32.40524         1.25456
H         25.30117        31.57032         1.78650
O         15.46391        44.31653         1.33235
H         16.27649        44.47684         1.85755
O         25.21421        29.80145         1.74945
H         24.79814        29.09864         2.31343
O         34.39342        27.36201         2.53196
H         33.64395        26.89667         2.96256
H          5.06455        31.18712         0.94135
H          5.07230        33.64982         1.00414
H          7.47446        26.87997         0.28589
H          6.26349        29.04070         0.69630
H          6.27273        35.81237         0.72001
H          7.51833        37.97513         0.59598
H          9.78100        22.61349         0.02673
H          8.59636        24.82647         0.10375
H          8.81614        40.11463         0.67063
H         10.20232        42.16813         0.94348
H         12.25919        18.34842         0.22523
H         11.06370        20.46593        -0.10272
H         11.44075        44.26969         0.94151
H         12.51622        46.41408         0.79212
H         14.71258        14.03145         0.40126
H         14.03869        16.52345         1.86978
H         13.68619        48.59103         0.92497
H         14.91460        50.68593         1.29110
H         17.17310         9.79692        -0.12258
H         15.97361        11.91936         0.22265
H         16.17752        52.75335         1.90822
H         17.47255        54.86461         2.33850
H         19.84394         5.62567        -1.12454
H         18.61017         7.74216        -0.96445
H         18.73648        57.05695         2.52780
H         20.92706        58.42583         4.20631
H         23.36206         2.40837        -1.87353
H         21.16240         3.48929        -1.49974
H         23.31882        62.50920         2.61899
H         21.25825        61.18283         3.10743
H         25.48644         3.51755        -1.29393
H         26.72149         5.70279        -0.72789
H         26.65710        59.27887         1.48030
H         25.42516        61.36526         1.95158
H         27.90369         7.87074        -0.51447
H         29.12171         9.89245         0.22084
H         29.12785        55.11111         0.48311
H         27.88535        57.19621         0.98212
H         30.30237        11.87518         0.86518
H         31.58608        13.98701         1.05365
H         31.60463        50.89103        -0.40305
H         30.36914        52.98049         0.06404
H         32.60755        16.40636         0.53533
H         34.11629        18.44577         1.04705
H         34.10794        46.59218        -0.80422
H         32.86585        48.76582        -0.63569
H         35.34382        20.58944         1.05045
H         36.56452        22.78521         0.83452
H         36.52325        42.29284        -0.43821
H         35.32719        44.44471        -0.57223
H         37.79694        24.85185         1.04171
H         39.12314        27.03823         0.52698
H         39.04333        38.02179        -0.25768
H         37.74713        40.09363        -0.25749
H         40.35337        29.12263         0.21861
H         41.57735        31.10068         0.15728
H         41.95284        33.43483         0.24052
H         40.40384        35.80587         0.68440
