         640
 CSIRO Nanostructure Databank - Neutral Graphene Oxide Data Set
C         23.28122        28.00754        -2.17145
C         23.18050        29.28605        -1.63358
C         23.08692        32.14816        -0.75487
C         23.10727        33.43326        -0.32367
C         22.97242        36.10830         0.85766
C         22.93906        37.42607         1.27307
C         23.05000        40.29549         2.17167
C         23.13289        41.72588         2.24118
C         23.15221        44.64951         2.13475
C         23.22154        46.04032         2.20690
C         25.82968        25.40235        -2.86098
C         24.62598        25.97212        -2.66758
C         25.64189        27.93953        -1.55273
C         24.51142        27.32944        -2.14923
C         25.51077        29.19258        -0.89600
C         24.27558        29.88124        -0.98102
C         25.35392        31.80631         0.34240
C         24.11928        31.19952        -0.32001
C         25.40369        33.26149         0.56162
C         24.23148        34.00633         0.38989
C         25.39548        36.01749         1.25044
C         24.18836        35.38479         0.80891
C         25.35210        37.40220         1.59458
C         24.13905        38.10177         1.61305
C         25.39418        40.24003         1.49064
C         24.15086        39.55090         1.83034
C         25.30657        41.67204         1.02433
C         24.19816        42.42461         1.73133
C         25.49941        44.53778         1.46137
C         24.27384        43.87731         1.77473
C         25.56001        45.96303         1.48547
C         24.40529        46.71137         1.88559
C         25.60555        48.82072         1.62588
C         24.50386        48.15020         2.02003
C         28.50885        24.27095        -3.39908
C         28.34158        25.38915        -2.57063
C         27.09106        26.22491        -2.71605
C         28.00787        27.72849        -0.91393
C         26.93826        27.28716        -1.64870
C         27.82470        28.82270         0.11760
C         26.66098        29.75944        -0.19569
C         27.74749        31.63489         1.06109
C         26.60859        31.02613         0.32804
C         27.78261        33.09152         1.26285
C         26.62581        33.87869         1.03499
C         27.80595        35.91904         1.98811
C         26.60145        35.26945         1.34543
C         27.87118        37.40017         1.73282
C         26.59495        38.15333         2.02014
C         27.78095        40.12111         0.78278
C         26.56317        39.55669         1.46349
C         27.82231        41.64137         0.82462
C         26.64717        42.37531         1.07345
C         27.92412        44.47249         0.92192
C         26.69427        43.78970         1.14720
C         27.95534        45.91029         0.91998
C         26.76619        46.64102         1.15551
C         28.06680        48.80110         1.00357
C         26.71866        48.12768         0.87998
C         28.16917        50.18599         1.18020
C         30.75459        23.90960        -2.55487
C         29.69616        23.53415        -3.38271
C         30.62422        25.06398        -1.73668
C         29.39650        25.80019        -1.73260
C         30.37313        27.53353        -0.26862
C         29.28329        27.03121        -0.95543
C         30.34035        28.86102         0.32671
C         29.12481        29.53996         0.42209
C         30.31395        31.57077         1.39824
C         29.03705        30.82653         1.12491
C         30.27935        33.06444         1.11511
C         29.06429        33.70283         1.82073
C         30.28136        35.90041         1.62577
C         29.09305        35.21172         1.68837
C         30.32481        37.34517         1.52292
C         29.05899        38.05099         1.52232
C         30.33027        40.13740         0.86391
C         29.05723        39.56247         1.44064
C         30.20504        41.45821         0.11595
C         29.03993        42.30115         0.58588
C         30.30795        44.42198         0.27111
C         29.10478        43.72568         0.59102
C         30.36427        45.83098         0.39377
C         29.19644        46.59317         0.70523
C         30.49765        48.72021         0.78533
C         29.24897        48.04122         0.81523
C         30.59635        50.12774         0.95553
C         29.40056        50.83897         1.17614
C         32.97774        20.86512        -2.44966
C         31.91390        21.66186        -2.69830
C         33.08357        23.55977        -1.60350
C         32.06413        23.16098        -2.64273
C         32.96007        24.81576        -0.94385
C         31.74220        25.52932        -0.97498
C         32.85277        27.41700         0.23138
C         31.56976        26.66450        -0.00177
C         32.81387        28.77821         0.63582
C         31.58670        29.45330         0.74915
C         32.85511        31.62766         1.09780
C         31.60506        30.84842         1.23146
C         32.81539        33.05159         1.30545
C         31.59628        33.73088         1.42829
C         32.87194        35.94392         1.70255
C         31.55624        35.15036         1.75844
C         32.81169        37.39543         1.44705
C         31.54875        38.05934         1.41422
C         32.79610        40.28721         1.16874
C         31.51400        39.48527         1.06941
C         32.81354        41.54153         0.32006
C         31.53005        42.20158        -0.05176
C         32.81424        44.39956        -0.11096
C         31.48800        43.69794        -0.35386
C         32.80518        45.81448        -0.08264
C         31.62519        46.51200         0.21550
C         33.02979        48.67392         0.38293
C         31.71068        47.91610         0.63186
C         32.98454        50.13525         0.31541
C         31.86746        50.82701         0.72565
C         33.16737        52.92148         0.71881
C         31.97979        52.28782         0.81614
C         35.48034        19.31470        -2.45321
C         35.41815        20.62560        -1.89076
C         34.23090        21.40261        -1.95275
C         35.35941        23.20350        -0.68586
C         34.21818        22.73330        -1.42480
C         35.24793        24.48908         0.01992
C         34.07085        25.34374        -0.18499
C         35.25079        27.29292         0.97159
C         34.05388        26.67604         0.26688
C         35.27831        28.80021         0.85607
C         34.07467        29.49359         0.84434
C         35.31136        31.65144         0.99863
C         34.06335        30.93655         0.96184
C         35.30637        33.07053         1.11796
C         34.07380        33.78260         1.29442
C         35.30654        35.91727         1.21712
C         34.08896        35.18963         1.36740
C         35.27434        37.34224         1.26280
C         34.05610        38.07873         1.27185
C         35.26258        40.22456         0.90697
C         34.08263        39.50751         1.06438
C         35.27854        41.63373         0.55815
C         34.07874        42.31993         0.33057
C         35.30544        44.41855        -0.05962
C         34.05128        43.70743         0.00628
C         35.33673        45.81046        -0.31397
C         34.03973        46.53408        -0.57962
C         35.43582        48.70626        -0.22384
C         34.12609        47.98252        -0.24319
C         35.34903        50.12120        -0.70529
C         34.09743        50.91046        -0.37211
C         35.52367        52.93368        -0.29264
C         34.44750        52.15401         0.44622
C         35.76453        54.29304        -0.03788
C         37.85119        19.12441        -1.90818
C         36.64806        18.59384        -2.46243
C         37.81042        20.42595        -1.34662
C         36.61566        21.17332        -1.31422
C         37.79980        23.15163        -0.31982
C         36.56220        22.48436        -0.69142
C         37.78808        24.48108         0.07923
C         36.56505        25.17347         0.46605
C         37.74656        27.34717         0.70520
C         36.57065        26.64468         0.62946
C         37.76314        28.79004         0.82644
C         36.53495        29.50143         0.87864
C         37.78053        31.64489         0.94015
C         36.53853        30.93345         0.93013
C         37.78118        33.06960         0.99060
C         36.54695        33.78746         1.08390
C         37.79548        35.92951         1.08370
C         36.54561        35.21091         1.12505
C         37.81112        37.34295         1.13851
C         36.54941        38.05752         1.36418
C         37.81330        40.22908         0.81081
C         36.55177        39.57586         1.19198
C         37.77819        41.61512         0.47472
C         36.53580        42.31833         0.39870
C         37.77824        44.38889        -0.11551
C         36.53613        43.70463         0.08805
C         37.77964        45.77655        -0.50108
C         36.55214        46.48708        -0.51784
C         37.66045        48.53960        -1.33139
C         36.58046        47.92091        -0.78535
C         37.56080        49.94788        -1.90503
C         36.40139        50.77259        -1.27266
C         37.23781        53.04702        -1.96383
C         36.34137        52.25281        -1.23383
C         37.61787        54.35438        -1.61651
C         36.82538        54.98287        -0.63455
C         40.32822        16.35215        -2.52143
C         39.13302        17.02707        -2.37985
C         40.32692        19.03909        -1.63622
C         39.08799        18.38091        -1.95448
C         40.33170        20.36206        -1.14544
C         39.03585        20.95551        -0.64718
C         40.27489        23.10670        -0.41785
C         39.06674        22.46000        -0.55517
C         40.27322        24.49025         0.11089
C         39.02482        25.32219        -0.05715
C         40.29816        27.36680         0.62383
C         39.03327        26.56214         0.85626
C         40.25959        28.79243         0.70862
C         39.01173        29.49613         0.82109
C         40.25363        31.64066         0.82441
C         39.01336        30.92222         0.87590
C         40.24972        33.07933         0.90073
C         39.02683        33.78403         0.97594
C         40.25657        35.94310         1.09723
C         39.02745        35.21803         1.03378
C         40.24961        37.36081         1.08969
C         39.02946        38.06990         1.06239
C         40.25351        40.19818         0.55131
C         39.02645        39.51973         0.86371
C         40.24524        41.58107         0.24360
C         39.00537        42.30686         0.24894
C         40.28445        44.47510         0.00872
C         38.99605        43.69725        -0.01128
C         40.21424        45.78525        -0.73771
C         38.97699        46.42074        -0.90818
C         40.18594        48.52383        -1.52719
C         38.89847        47.73031        -1.66701
C         40.16333        49.92736        -1.71675
C         38.92880        50.62200        -1.94103
C         40.16008        52.76317        -2.26122
C         39.02395        51.92357        -2.41296
C         40.08037        54.21092        -2.30394
C         38.86696        54.95408        -2.12283
C         40.07304        57.05366        -2.47070
C         38.90082        56.36675        -2.23068
C         42.80960        16.33323        -2.45340
C         41.57141        17.00411        -2.27869
C         42.81058        19.02578        -1.60350
C         41.57252        18.35915        -1.84495
C         42.80588        20.39312        -1.18241
C         41.55778        21.04955        -0.95035
C         42.77360        23.12743        -0.44259
C         41.55550        22.43614        -0.57779
C         42.79327        24.63509        -0.33390
C         41.54682        25.22435         0.28739
C         42.76000        27.40537         0.40354
C         41.50579        26.70324         0.43007
C         42.74049        28.82112         0.49309
C         41.48659        29.51943         0.61800
C         42.72940        31.69040         0.39078
C         41.46531        30.93358         0.67672
C         42.72235        33.09757         0.90152
C         41.49698        33.80430         0.96904
C         42.74728        35.92680         1.11142
C         41.49695        35.21825         1.12053
C         42.77169        37.35069         0.99989
C         41.52759        38.13957         1.29345
C         42.69248        40.10137         0.23331
C         41.51365        39.49278         0.61899
C         42.65711        41.42100        -0.49382
C         41.45621        42.26013        -0.13569
C         42.69044        44.31089        -0.73247
C         41.48632        43.63659        -0.35859
C         42.67246        45.71818        -1.01359
C         41.42558        46.42984        -1.08379
C         42.64987        48.53623        -1.60316
C         41.41303        47.83298        -1.42396
C         42.61552        49.93278        -1.81883
C         41.39594        50.65186        -1.85305
C         42.60496        52.82692        -2.15423
C         41.39738        52.08525        -2.07418
C         42.58038        54.25218        -2.32443
C         41.31831        54.93412        -2.38142
C         42.53768        57.05676        -2.62517
C         41.31185        56.35725        -2.49790
C         44.00652        16.98259        -2.22061
C         45.29066        19.04012        -1.58058
C         44.04418        18.33784        -1.79979
C         45.28356        20.40916        -1.19085
C         44.03471        21.08917        -0.98006
C         45.27118        23.18376        -0.44262
C         44.01838        22.46281        -0.60404
C         45.28423        24.54279        -0.06733
C         44.00532        25.18431         0.40598
C         45.22289        27.38754         0.38759
C         43.99763        26.69580         0.34545
C         45.21841        28.80904         0.53494
C         43.98783        29.53135         0.56160
C         45.20177        31.63916         0.95662
C         43.99422        30.93965         0.69375
C         45.18627        33.04191         1.21472
C         43.95889        33.76528         1.08428
C         45.21527        35.88449         0.85397
C         43.95357        35.19303         1.08244
C         45.20977        37.33338         0.70893
C         43.96952        38.03601         0.72589
C         45.17085        40.09437         0.06452
C         43.96315        39.43289         0.36402
C         45.17464        41.50597        -0.28037
C         43.95320        42.18895        -0.42201
C         45.16548        44.25358        -0.91537
C         43.93887        43.58125        -0.70350
C         45.12780        45.64037        -1.39695
C         43.87627        46.40635        -1.31277
C         45.15276        48.49336        -1.64257
C         43.90180        47.80434        -1.56143
C         45.17551        49.93001        -1.95341
C         43.86482        50.66788        -2.07440
C         45.05185        52.84086        -1.96579
C         43.86428        52.14865        -2.02202
C         45.13393        54.26054        -2.46858
C         43.79752        54.98544        -2.40513
C         43.74755        56.37860        -2.59163
C         47.73152        19.06868        -1.56602
C         46.54169        18.39687        -1.76010
C         47.75705        20.43589        -1.19450
C         46.51838        21.11359        -1.01462
C         47.74278        23.20513        -0.49153
C         46.51142        22.50432        -0.65863
C         47.73937        24.59367        -0.17475
C         46.49624        25.27013         0.02264
C         47.70317        27.40045         0.34670
C         46.47799        26.68249         0.27977
C         47.69774        28.81321         0.56029
C         46.45196        29.51539         0.65606
C         47.67539        31.59352         1.12812
C         46.43712        30.90634         0.91128
C         47.65211        32.90271         1.66740
C         46.38635        33.72753         1.85403
C         47.64731        36.09747         1.55573
C         46.54745        35.16568         1.28375
C         47.65438        37.37823         0.93194
C         46.42714        38.02215         0.55103
C         47.65474        40.09797         0.03504
C         46.42472        39.41450         0.20906
C         47.66543        41.51358        -0.27971
C         46.41344        42.20416        -0.42210
C         47.65525        44.32827        -0.79623
C         46.40852        43.59402        -0.74644
C         47.67774        45.72384        -1.01811
C         46.45076        46.40367        -1.44483
C         47.60803        48.59609        -1.26883
C         46.39464        47.86713        -1.42140
C         47.57778        50.04140        -1.31312
C         46.38896        50.69178        -1.62541
C         47.52242        52.94879        -1.23124
C         46.27610        52.14858        -1.50872
C         47.43627        54.41714        -1.46551
C         46.32292        55.01518        -1.91466
C         50.25709        20.48706        -1.11689
C         49.00669        21.13922        -0.98845
C         50.22698        23.21711        -0.43238
C         48.99517        22.51843        -0.64305
C         50.21626        24.61910        -0.13417
C         48.97217        25.30765        -0.02862
C         50.18044        27.43543         0.31574
C         48.95152        26.70954         0.22566
C         50.15843        28.84196         0.48501
C         48.93052        29.52656         0.63906
C         50.16103        31.62607         1.18154
C         48.92051        30.93118         0.95526
C         50.13376        32.92158         1.76700
C         48.87150        33.40235         2.12832
C         50.10784        36.09143         1.73859
C         48.87351        35.63562         2.14423
C         50.13744        37.56306         1.44195
C         48.87073        38.10690         0.82213
C         50.16377        40.05384         0.00559
C         48.87279        39.40139         0.29889
C         50.16207        41.52208        -0.34556
C         48.87214        42.23214        -0.37599
C         50.12044        44.37460        -0.55022
C         48.89010        43.64850        -0.55728
C         50.11604        45.79567        -0.69454
C         48.87238        46.47902        -0.91198
C         50.06263        48.65151        -0.97075
C         48.84300        47.91012        -1.05566
C         50.04917        50.08663        -1.06184
C         48.81173        50.79504        -1.16913
C         50.03594        52.90041        -1.28769
C         48.80755        52.20943        -1.24144
C         51.44578        21.15518        -0.88627
C         52.70916        23.21559        -0.23688
C         51.46637        22.52357        -0.53035
C         52.69382        24.60306         0.08068
C         51.44418        25.32435         0.07271
C         52.66431        27.43812         0.50912
C         51.42942        26.72537         0.27657
C         52.66888        28.84157         0.63204
C         51.42966        29.63029         0.30070
C         52.62124        31.68868         1.17936
C         51.40467        30.98574         0.95342
C         52.63481        33.07092         1.49989
C         51.38647        33.75342         2.04771
C         52.59315        35.91858         1.17844
C         51.29752        35.21270         1.53480
C         52.61631        37.39046         1.02646
C         51.41857        38.09959         0.88059
C         52.63128        40.17677         0.44828
C         51.42357        39.44674         0.47466
C         52.61718        41.61047         0.15666
C         51.40935        42.28185        -0.16745
C         52.59871        44.41253        -0.38316
C         51.37831        43.68750        -0.35077
C         52.59549        45.84231        -0.54719
C         51.33255        46.53985        -0.66238
C         52.52158        48.71505        -0.76215
C         51.30281        47.96447        -0.79517
C         52.52400        50.10232        -0.89816
C         51.27711        50.81337        -1.04511
C         51.23757        52.22238        -1.19066
C         55.12297        23.18304         0.11217
C         53.94831        22.53726        -0.24459
C         55.12100        24.53649         0.49341
C         53.90687        25.27217         0.42934
C         55.08352        27.41381         0.88271
C         53.89087        26.70611         0.64486
C         55.09940        28.82952         0.98191
C         53.87045        29.55170         0.87878
C         55.09487        31.66443         1.20715
C         53.86999        30.97458         1.05055
C         55.10494        33.08984         1.29239
C         53.86323        33.79819         1.40264
C         55.10304        35.94001         1.22680
C         53.88181        35.21871         1.33234
C         55.10507        37.37688         1.08195
C         53.85208        38.08128         0.93276
C         55.07197        40.23389         0.98193
C         53.82838        39.49076         0.76756
C         55.06090        41.74251         0.67901
C         53.81707        42.35302         0.19235
C         55.07910        44.41416        -0.30724
C         53.83613        43.72592        -0.17905
C         55.07115        45.82779        -0.59902
C         53.81251        46.53155        -0.59962
C         54.99891        48.69702        -1.16245
C         53.83442        48.02882        -0.45125
C         54.97779        50.17776        -1.06852
C         53.79910        50.81797        -0.92044
C         57.69830        24.53623         0.85792
C         56.36218        25.18514         0.98199
C         57.60305        27.43835         1.03831
C         56.34187        26.68561         1.11606
C         57.58826        28.81520         1.16341
C         56.32995        29.53398         1.17390
C         57.57036        31.66702         1.28803
C         56.33117        30.94126         1.23618
C         57.56550        33.06479         1.20635
C         56.33910        33.79982         1.23638
C         57.58978        35.95563         1.15432
C         56.34256        35.23068         1.21427
C         57.58295        37.38400         1.10097
C         56.33259        38.09073         1.02856
C         57.55372        40.25637         0.86295
C         56.34738        39.51952         0.94362
C         57.54760        41.68204         0.59002
C         56.33793        42.38195         0.37796
C         57.55273        44.40412        -0.28815
C         56.32422        43.72580        -0.10976
C         57.56099        45.73451        -0.99255
C         56.26777        46.49366        -0.88080
C         57.57854        48.59734        -1.37394
C         56.27884        47.90658        -1.31233
C         58.83901        25.24012         0.82788
C         60.06503        27.41880         1.30804
C         58.88405        26.73820         0.66562
C         60.03706        28.74761         1.55402
C         58.83263        29.54519         1.35672
C         59.99642        31.72152         1.78059
C         58.81745        30.93529         1.44111
C         60.01064        33.06337         1.64154
C         58.87428        33.76623         0.93692
C         60.01998        35.99374         1.11261
C         58.82721        35.26371         1.13181
C         60.01717        37.38632         1.11435
C         58.80978        38.11101         1.07917
C         59.99421        40.30358         0.87046
C         58.80227        39.56138         0.95185
C         59.98936        41.67578         0.63140
C         58.78968        42.38495         0.44508
C         59.96170        44.57602         0.06149
C         58.77977        43.78805         0.06406
C         59.93147        45.94698        -0.23361
C         58.76733        46.57880        -0.66674
C         58.73184        47.97178        -0.99993
O         32.31664        41.44629        -1.06411
O         24.29516        31.14720         1.13155
O         37.89031        52.45507        -3.05657
O         35.71587        24.45295         1.41750
O         32.66960        48.11970         1.72853
O         56.22676        25.79673         2.31589
O         54.96672        41.23342         2.05715
O         44.58778        50.22241        -3.28818
O         32.27451        35.52507         2.98147
O         30.99217        31.09968         2.58153
O         50.26637        40.48709        -1.39942
O         40.95730        24.50966         1.42547
O         48.79923        34.51405         2.97549
O         46.65073        52.56846        -0.10858
O         51.72124        35.28947         0.13854
O         55.35864        48.17461        -2.46189
O         36.60434        38.96719         2.52869
O         46.11863        35.21203        -0.09664
O         45.85443        45.82701        -2.66003
O         28.11141        30.82728         2.26709
O         40.49127        44.85588         1.42415
H         40.48000        44.02931         1.95243
O         29.15534        33.37694         3.22298
H         28.36640        33.76074         3.66702
O         45.43724        54.12537        -3.90915
H         44.72326        53.58594        -4.31222
O         27.66716        39.66959        -0.58865
H         28.40744        40.09077        -1.10058
O         35.76217        48.83719         1.21712
H         35.33762        49.66083         1.55944
O         31.27712        43.81042        -1.80260
H         31.76850        43.06188        -2.21073
O         30.02326        33.20993        -0.31596
H         30.85676        33.03631        -0.80192
O         26.36792        48.24276        -0.55223
H         25.52084        47.76483        -0.68148
O         24.95464        41.64846        -0.40054
H         25.61972        41.07756        -0.84612
O         38.79089        47.38406        -3.09095
H         38.30770        48.12492        -3.52958
O         42.74568        31.84452        -1.09641
H         43.55128        32.35789        -1.32372
O         34.99665        51.68802         1.70994
H         35.22187        52.46815         2.25840
O         37.16836        49.75400        -3.30481
H         37.18700        50.64777        -3.72168
O         32.77492        40.80395         2.54617
H         33.08829        40.09040         3.14208
O         59.13427        33.59349        -0.50548
H         59.11339        32.63012        -0.68953
O         33.86782        46.48781        -2.06236
H         33.57132        45.57903        -2.29063
O         57.70607        45.40436        -2.43835
H         58.57230        44.95512        -2.54183
O         33.55560        51.39581        -1.63001
H         33.41980        50.62730        -2.22240
O         50.13069        38.19385         2.80124
H         49.36879        37.82304         3.29742
O         43.84678        24.81050         1.80528
H         44.61686        25.15702         2.30218
O         29.01803        40.08046         2.80438
H         29.79714        39.73238         3.28644
O         51.56183        33.85679         3.48882
H         51.59868        32.95083         3.85993
O         29.83255        41.06457        -1.25527
H         30.66782        40.76449        -1.68719
O         27.60740        35.74142         3.46464
H         28.43267        36.05478         3.89724
O         35.05241        27.00136         2.39664
H         35.23231        26.03736         2.51284
O         54.09565        48.26987         0.97814
H         53.34516        47.89570         1.48635
O         27.44524        28.16686         1.37005
H         27.47577        28.86336         2.06886
O         38.91111        20.49750         0.75186
H         39.65541        20.88981         1.25672
O         42.49318        41.06656        -1.92199
H         42.51524        41.90324        -2.43412
O         31.25900        26.00686         1.29357
H         32.08735        25.58964         1.61539
O         59.04359        26.94265        -0.79080
H         59.16441        27.90529        -0.93687
O         39.02794        26.13831         2.23811
H         39.81652        25.55512         2.37264
O         51.51156        29.89420        -1.16015
H         51.51109        29.02320        -1.61167
O         39.04665        25.82947        -1.42831
H         38.87322        25.07941        -2.03519
O         41.58206        38.41350         2.74831
H         40.73914        38.85370         2.99154
O         26.51896        38.27729         3.47844
H         26.60076        37.36006         3.83542
O         32.64670        23.55700        -3.94402
H         33.47670        23.04535        -4.05345
O         27.24948        26.94188        -3.99124
H         26.43387        27.46949        -4.12774
O         42.87701        25.14912        -1.69053
H         42.16553        24.74027        -2.22551
O         46.10553        33.84646         3.27374
H         46.95056        34.09775         3.71243
H         22.40208        27.52718        -2.62349
H         22.21455        29.80769        -1.66802
H         22.28928        31.81207        -1.43222
H         22.29452        34.10362        -0.63527
H         22.03085        35.61693         0.57881
H         21.98254        37.96655         1.29691
H         22.10193        39.81023         2.44361
H         22.29061        42.25679         2.70769
H         22.19772        44.15878         2.36650
H         22.33784        46.61785         2.51408
H         25.89638        24.37235        -3.23997
H         23.69810        25.41531        -2.86806
H         25.63260        49.91376         1.73300
H         23.65880        48.68535         2.47917
H         27.71270        23.98159        -4.09847
H         27.26525        50.79572         1.30887
H         29.80379        22.67432        -4.05829
H         29.41626        51.92775         1.31564
H         32.87766        19.77779        -2.57652
H         30.96752        21.22377        -3.04683
H         33.21696        54.01011         0.87457
H         31.08007        52.87908         1.03859
H         34.58206        18.87353        -2.90523
H         35.14715        54.81992         0.70435
H         36.64836        17.59588        -2.92053
H         37.05073        56.00951        -0.31414
H         40.33160        15.29997        -2.84063
H         38.19875        16.48945        -2.59077
H         40.06606        58.14707        -2.58249
H         37.95842        56.92483        -2.13612
H         42.80834        15.28386        -2.78182
H         42.52094        58.14935        -2.74500
H         44.94164        16.42768        -2.37332
H         44.67876        56.95002        -2.70585
H         48.67013        18.51901        -1.71391
H         46.58094        17.34041        -2.05579
H         48.28771        55.03970        -1.14927
H         46.31988        56.11147        -2.00782
H         50.30216        19.42496        -1.39050
H         50.04411        53.99493        -1.37985
H         52.38473        20.59539        -0.98710
H         52.16755        52.80417        -1.21306
H         56.06121        22.61212         0.12397
H         53.99760        21.47213        -0.50480
H         55.91060        50.74924        -1.17724
H         53.79553        51.91521        -0.87323
H         57.74601        23.43720         0.90453
H         57.60094        49.64832        -1.69316
H         59.80358        24.70994         0.79218
H         60.98916        26.84303         1.46724
H         60.94043        29.24347         1.93820
H         60.87202        31.20925         2.20524
H         60.90615        33.63134         1.93247
H         60.98394        35.46851         1.06837
H         60.98225        37.90906         1.09724
H         60.96618        39.80211         0.96687
H         60.95493        42.19205         0.54540
H         60.91490        44.13439         0.38050
H         60.84803        46.54179        -0.10221
H         59.67636        48.53700        -0.97366
