         210
 CSIRO Nanostructure Databank - Neutral Graphene Oxide Data Set
C         30.41530        31.79082        -0.75302
C         30.51101        33.01220        -1.05325
C         30.54868        36.11983        -1.42927
C         30.57291        37.37193        -1.40433
C         30.57847        40.48068        -0.92924
C         30.51299        41.69472        -0.59127
C         32.76584        29.00744         0.03460
C         31.70360        29.62914        -0.12809
C         32.81996        31.67421        -0.69191
C         31.54524        30.99818        -0.49823
C         32.84880        33.09093        -0.93051
C         31.63602        33.84561        -1.12169
C         32.87417        35.98468        -1.04179
C         31.65693        35.25936        -1.23713
C         32.88469        37.42242        -0.96237
C         31.68707        38.19787        -1.12654
C         32.87770        40.27923        -0.49561
C         31.68484        39.60182        -0.90690
C         32.84241        41.66278        -0.06161
C         31.59615        42.44561        -0.11476
C         32.82963        44.25895         0.87198
C         31.77034        43.74334         0.45266
C         35.41124        27.48408         0.32950
C         35.28263        28.64439        -0.55411
C         34.03872        29.44520        -0.56296
C         35.31844        31.60237        -0.68904
C         34.07527        30.94789        -0.65992
C         35.32358        33.07098        -0.72519
C         34.09294        33.80140        -0.87761
C         35.31144        35.95284        -0.70852
C         34.09190        35.23550        -0.87826
C         35.32805        37.38555        -0.59496
C         34.10325        38.11852        -0.66662
C         35.33782        40.19278        -0.15973
C         34.10383        39.52720        -0.43177
C         35.31137        41.64643         0.10143
C         34.01614        42.24484         0.45566
C         35.29796        44.08971         1.66784
C         33.97489        43.42930         1.41642
C         35.45925        45.08338         2.62424
C         37.65544        27.79130         1.10505
C         36.28390        27.35313         1.20965
C         37.79581        28.71780         0.02869
C         36.66863        29.29962        -0.85492
C         37.77814        31.61417        -0.79153
C         36.59853        30.87230        -0.75005
C         37.78499        33.04562        -0.27079
C         36.52520        33.79852        -0.61628
C         37.76137        35.95856        -0.59727
C         36.53212        35.22298        -0.62237
C         37.79003        37.35341        -0.46760
C         36.55582        38.08096        -0.39276
C         37.81364        40.19084         0.12446
C         36.55963        39.49472        -0.15855
C         37.82275        41.52704         0.49839
C         36.60490        42.35932         0.44551
C         37.78894        44.14358         1.83055
C         36.57583        43.59743         1.28556
C         37.71878        45.07589         2.89312
C         36.44755        45.60280         3.22217
C         39.85681        25.95694         3.47293
C         38.86132        26.39112         2.85465
C         40.11214        27.89468         1.54756
C         38.78792        27.36310         1.81893
C         40.24283        28.86161         0.50545
C         39.10015        29.06268        -0.30595
C         40.28792        31.67454        -0.63634
C         39.10130        31.07858        -1.00603
C         40.28088        33.12163        -0.59496
C         39.05874        33.77907        -0.60544
C         40.31667        35.97729        -0.89712
C         39.00069        35.21182        -0.86608
C         40.28352        37.40063        -0.53089
C         39.05157        38.07677        -0.37080
C         40.31197        40.11145         0.15831
C         39.06723        39.45572        -0.02457
C         40.33994        41.48105         0.70596
C         39.08462        42.27972         0.68318
C         40.47535        44.32283         1.52397
C         39.11517        43.67497         1.28349
C         40.59511        45.71114         1.94588
C         39.67738        46.26366         2.88212
C         40.67551        48.35757         2.54747
C         39.78295        47.64498         3.09908
C         42.44032        25.97427         3.75139
C         41.19472        26.38485         3.24530
C         42.56404        27.97264         1.82863
C         41.28926        27.43236         2.23079
C         42.63414        29.05865         0.87623
C         41.48914        29.56635         0.27429
C         42.76047        31.72393        -0.22666
C         41.58078        30.84328        -0.62108
C         42.77266        33.08955        -0.43321
C         41.53984        33.83080        -0.65566
C         42.79108        35.95603        -0.64455
C         41.56070        35.21914        -0.69638
C         42.74838        37.34967        -0.59011
C         41.51971        38.07056        -0.38762
C         42.80556        40.18711        -0.01956
C         41.54247        39.45554        -0.05797
C         42.84357        41.56566         0.28321
C         41.64055        42.23095         0.81120
C         42.83624        44.42810         0.73516
C         41.61719        43.70297         1.00328
C         42.82562        45.85243         0.87114
C         41.70429        46.51083         1.48177
C         42.89795        48.60734         1.23624
C         41.74337        47.94926         1.75263
C         43.52341        26.47996         3.34209
C         45.07214        28.03243         2.06093
C         43.78677        27.48042         2.40191
C         45.19353        29.13254         1.18130
C         43.97613        29.61347         0.42026
C         45.27308        31.74941         0.04440
C         43.95751        31.13685         0.47271
C         45.27768        33.12793        -0.28640
C         44.03050        33.82890        -0.40104
C         45.28635        35.91798        -0.67465
C         44.04570        35.22601        -0.60413
C         45.29360        37.36814        -0.89890
C         43.97232        38.12735        -0.80297
C         45.23898        40.23302        -0.47689
C         44.00742        39.53855        -0.41683
C         45.22935        41.64765        -0.28101
C         44.03285        42.31742         0.08733
C         45.21456        44.48402        -0.01648
C         44.01816        43.75132         0.28903
C         45.16256        45.92871         0.06215
C         44.01191        46.58758         0.47685
C         43.83371        47.97864         0.70115
C         47.45594        28.09358         2.21313
C         46.33405        27.63003         2.55019
C         47.66754        29.15355         1.31367
C         46.44627        29.72796         0.85135
C         47.71724        31.68370        -0.14412
C         46.48337        31.03960         0.18249
C         47.75456        33.08607        -0.42608
C         46.52126        33.81936        -0.43313
C         47.76929        35.97374        -0.63008
C         46.52192        35.23866        -0.58475
C         47.77354        37.38711        -0.63522
C         46.53426        38.12710        -0.68709
C         47.76598        40.28047        -0.88580
C         46.48504        39.51601        -0.65281
C         47.69580        41.70216        -0.41644
C         46.47372        42.38633        -0.36118
C         47.67323        44.51960        -0.95317
C         46.42228        43.81359        -0.35685
C         47.51686        45.98343        -0.59430
C         46.42475        46.48895        -0.30936
C         50.27052        29.26800         1.19832
C         48.92561        29.55507         0.68930
C         50.27203        31.53761        -0.46123
C         48.95366        30.87210        -0.12297
C         50.24154        33.03653        -0.82360
C         48.97860        33.80573        -0.66960
C         50.24078        35.97312        -0.73880
C         49.00966        35.22837        -0.69039
C         50.24050        37.36644        -0.51974
C         49.01100        38.12301        -0.51831
C         50.23094        40.27228        -0.26894
C         49.01422        39.53050        -0.45700
C         50.24237        41.68444        -0.15995
C         48.92049        42.41307         0.06607
C         50.18171        44.34537        -0.25817
C         48.92955        43.88727        -0.44399
C         51.33270        29.71481         0.71991
C         52.68537        31.70758        -0.23872
C         51.58450        30.93329         0.02551
C         52.56209        32.92908        -0.64759
C         51.52306        33.79608        -0.76646
C         52.72297        36.01481        -0.59926
C         51.52800        35.23871        -1.15536
C         52.58509        37.23769        -0.45396
C         51.47364        38.12522        -0.37412
C         52.60451        40.36614        -0.14289
C         51.47580        39.50195        -0.24219
C         52.62334        41.60850        -0.02174
C         51.47639        42.45761        -0.08298
C         51.35786        43.86135         0.02525
O         36.04636        42.47638        -0.90407
O         39.06792        43.46687        -0.18196
O         48.83621        29.55627        -0.75624
O         44.58716        37.82170        -2.10520
O         38.83820        45.44309         3.61235
O         50.25720        31.97739        -1.84618
O         34.43975        28.64851        -1.72493
O         41.05327        41.53844         1.98826
O         39.61821        35.63399        -2.13997
O         39.24864        29.77353        -1.50251
O         48.77508        42.50930         1.51536
H         49.56241        42.98293         1.86280
O         33.56050        42.93012         2.70059
H         32.64079        42.59770         2.62945
O         41.84631        30.41903        -1.97902
H         41.04536        29.93920        -2.29293
O         36.97228        28.96245        -2.21034
H         36.12491        28.93646        -2.70992
O         37.78513        32.89949         1.19873
H         36.93920        32.47271         1.45393
O         47.63139        44.36810        -2.36668
H         46.82826        44.80867        -2.71313
O         51.57699        35.29995        -2.57917
H         52.28859        34.70692        -2.89907
O         43.79311        31.46817         1.89242
H         43.78193        32.44519         1.97702
O         47.88835        40.37799        -2.36051
H         47.67292        39.49827        -2.73911
O         44.16522        29.24121        -0.96093
H         44.13902        28.26547        -1.03568
