         410
 CSIRO Nanostructure Databank - Neutral Graphene Oxide Data Set
C         27.85761        27.40916        -0.04250
C         27.83457        28.78764        -0.36141
C         26.59810        29.48150        -0.51486
C         27.78441        31.57630        -0.90909
C         26.57568        30.82400        -0.79637
C         27.75687        33.01052        -1.07811
C         26.54832        33.74403        -1.19431
C         27.74150        35.86530        -1.05891
C         26.54225        35.12727        -1.21098
C         27.68806        37.32481        -0.72871
C         26.56705        38.21347        -1.11244
C         27.76977        40.29046        -0.46059
C         26.61807        39.56764        -0.95398
C         27.80598        41.69417        -0.29010
C         26.61129        42.49342        -0.26516
C         27.89569        44.53697         0.14520
C         26.65151        43.84338        -0.03824
C         27.94989        45.92140         0.43250
C         30.29031        27.40829        -0.14638
C         29.06246        26.74386         0.07813
C         30.30507        28.78954        -0.45001
C         29.06154        29.49254        -0.53235
C         30.26310        31.62657        -0.90940
C         29.02704        30.90166        -0.77947
C         30.22715        33.01849        -1.08837
C         28.98534        33.73547        -1.08332
C         30.24580        35.87782        -0.83950
C         28.95593        35.16347        -1.00094
C         30.28562        37.34318        -0.57485
C         28.96501        38.02743        -0.36779
C         30.33485        40.24061        -0.26616
C         28.98727        39.51709        -0.20995
C         30.29235        41.70207        -0.31461
C         29.07368        42.38651        -0.16066
C         30.36002        44.49081         0.18225
C         29.10853        43.80871         0.03754
C         30.39290        45.87445         0.54273
C         29.16323        46.56267         0.65047
C         32.86004        24.71329         0.68620
C         31.66131        25.32310         0.50945
C         32.86688        27.39289        -0.36097
C         31.54755        26.62139        -0.17342
C         32.79940        28.86029        -0.46704
C         31.55408        29.52136        -0.61513
C         32.75987        31.66232        -0.95073
C         31.52613        30.93081        -0.83317
C         32.76791        33.05437        -1.22059
C         31.48029        33.73111        -1.39505
C         32.74864        35.97703        -1.27173
C         31.46989        35.23627        -1.39925
C         32.72630        37.35415        -1.22043
C         31.42026        38.12169        -1.23483
C         32.69943        40.28494        -0.95221
C         31.54586        39.54352        -0.73059
C         32.72202        41.67865        -0.64755
C         31.53567        42.39168        -0.34440
C         32.84189        44.41973         0.20648
C         31.57358        43.78554        -0.03776
C         32.87968        45.77916         0.68286
C         31.67605        46.51350         0.81112
C         32.98788        48.46083         1.50815
C         31.76268        47.86614         1.23119
C         35.45354        23.27184         0.81112
C         35.36232        24.66800         0.53120
C         34.12673        25.35485         0.38475
C         35.31260        27.52046         0.14086
C         34.11347        26.73756         0.04647
C         35.25702        28.94774        -0.12795
C         34.02024        29.59334        -0.45171
C         35.23140        31.69696        -0.94610
C         34.00750        30.98661        -0.76647
C         35.22725        33.11591        -1.19645
C         33.98193        33.80982        -1.26346
C         35.22349        35.96906        -1.27819
C         33.99035        35.24537        -1.31797
C         35.25065        37.39951        -1.37671
C         33.96464        38.09562        -1.49427
C         35.24815        40.27611        -1.25516
C         33.94498        39.62145        -1.43372
C         35.27188        41.72163        -1.02244
C         33.97319        42.43721        -0.72398
C         35.30547        44.16000         0.60675
C         34.02369        43.72493        -0.03194
C         35.34504        45.63246         0.88162
C         34.16293        46.37943         0.97817
C         35.48722        48.38656         1.66270
C         34.20259        47.76001         1.39069
C         35.57950        49.76523         1.99449
C         37.93407        23.29965         0.74405
C         36.64650        22.59681         0.86802
C         37.88854        24.77422         0.71334
C         36.63218        25.39121         0.13646
C         37.74511        27.62817         0.62672
C         36.52810        26.87222         0.37085
C         37.72063        29.12957         0.27077
C         36.45365        29.69334        -0.22517
C         37.72615        31.64794        -1.09046
C         36.45100        31.00471        -0.73382
C         37.72210        33.13566        -1.36484
C         36.44566        33.85996        -1.23672
C         37.74390        36.01637        -0.97111
C         36.45520        35.25631        -1.22074
C         37.72147        37.44926        -1.44392
C         36.47527        38.12576        -1.47001
C         37.69715        40.31398        -1.43730
C         36.45362        39.58840        -1.43020
C         37.75285        41.66005        -1.00921
C         36.54678        42.34986        -0.62367
C         37.81996        44.25926         0.22950
C         36.56953        43.59582        -0.01588
C         37.86949        45.52883         0.84087
C         36.63230        46.14061         1.46057
C         37.93797        48.24682         1.82532
C         36.68110        47.63744         1.58675
C         37.99362        49.59887         2.27216
C         36.78918        50.34026         2.32875
C         40.48135        20.65771         1.99841
C         39.33143        21.22333         1.58643
C         40.36831        23.53265         1.52396
C         39.26682        22.62978         1.11357
C         40.27196        24.89109         1.37238
C         39.04194        25.51807         0.91051
C         40.22959        27.69155         0.62831
C         39.04078        26.94963         0.71819
C         40.19117        29.04844         0.16683
C         39.00554        29.75240        -0.08278
C         40.19107        31.78765        -0.86853
C         39.00874        31.04384        -0.69773
C         40.23554        33.14371        -1.31398
C         38.99690        33.88349        -1.36005
C         40.15262        35.98254        -1.89498
C         38.97666        35.26184        -1.39517
C         40.15052        37.45825        -1.89715
C         38.95449        38.13379        -1.71087
C         40.20803        40.35175        -1.92868
C         38.87686        39.60635        -2.08330
C         40.22948        41.76015        -1.35886
C         38.98824        42.36187        -0.84459
C         40.29935        44.27765        -0.00178
C         39.03414        43.61803        -0.21700
C         40.32865        45.56107         0.59585
C         39.11017        46.20112         1.00781
C         40.40944        48.13799         1.82681
C         39.15546        47.51273         1.57596
C         40.44908        49.42414         2.47838
C         39.25832        50.15975         2.69680
C         40.53104        51.90449         3.83636
C         39.33111        51.41162         3.36902
C         42.95420        20.83065         2.69233
C         41.75212        21.41638         2.04536
C         42.71052        23.74510         2.59044
C         41.66090        22.90807         1.91327
C         42.67903        25.22704         2.30866
C         41.41082        25.79010         1.72212
C         42.70778        27.75110         0.94045
C         41.49400        27.09122         1.02635
C         42.74458        29.02707         0.19942
C         41.45954        29.69212        -0.19547
C         42.72522        31.91046        -0.59333
C         41.43693        31.17491        -0.38999
C         42.72344        33.22227        -1.26241
C         41.48572        33.82371        -1.52811
C         42.76915        35.93118        -2.39447
C         41.45075        35.19073        -2.09872
C         42.68322        37.40389        -2.00554
C         41.41640        38.15841        -2.36019
C         42.68495        40.28178        -1.70675
C         41.47884        39.60825        -1.90667
C         42.71535        41.67141        -1.27315
C         41.51927        42.33807        -0.94951
C         42.77055        44.33067        -0.24136
C         41.52470        43.63485        -0.36895
C         42.78199        45.63432         0.32051
C         41.58573        46.22680         0.78344
C         42.88284        48.07654         1.83031
C         41.61783        47.49761         1.45558
C         42.91439        49.25660         2.64435
C         41.69879        49.95355         2.91914
C         42.99038        51.67647         4.10040
C         41.73803        51.18747         3.62650
C         44.02739        21.57783         3.00861
C         45.23482        23.89383         3.10400
C         43.96774        23.06798         3.04838
C         45.19972        25.39031         2.61809
C         43.94799        25.95939         2.10101
C         45.21432        27.90548         1.28663
C         43.95811        27.19905         1.45965
C         45.21903        29.30419         0.80575
C         43.94507        29.90066         0.32244
C         45.26510        31.76051        -0.88510
C         43.97038        31.09227        -0.59006
C         45.23596        33.21269        -1.21761
C         43.99455        33.88403        -1.46489
C         45.23020        35.96232        -1.84022
C         44.01780        35.25355        -1.84750
C         45.25594        37.39907        -2.18158
C         43.91376        38.17157        -2.22681
C         45.17671        40.29394        -1.91801
C         43.95253        39.60684        -1.92173
C         45.20234        41.72348        -1.60685
C         43.96166        42.38159        -1.18155
C         45.15737        44.61273        -0.96590
C         43.96735        43.70578        -0.72071
C         45.29473        45.71330         0.06881
C         44.02711        46.49685         0.28284
C         45.33335        47.95149         1.89629
C         44.08441        47.48356         1.41398
C         45.36745        49.06998         2.78640
C         44.15256        49.76895         3.10928
C         44.15303        50.98482         3.86091
C         47.68084        23.97283         2.82257
C         46.53452        23.24630         2.97330
C         47.68301        25.37834         2.51939
C         46.47100        26.02053         2.23268
C         47.69859        28.02599         1.38713
C         46.44392        27.32348         1.62539
C         47.72296        29.29605         0.77229
C         46.48849        29.94779         0.38721
C         47.76101        31.73967        -0.72669
C         46.49116        31.12093        -0.33739
C         47.73281        33.18161        -1.23253
C         46.44835        33.91515        -1.30146
C         47.71862        36.04715        -1.54168
C         46.46404        35.31901        -1.52833
C         47.72343        37.46435        -1.75578
C         46.48168        38.17033        -1.94754
C         47.68685        40.29578        -2.24637
C         46.42242        39.56661        -2.05670
C         47.66774        41.81397        -1.99297
C         46.39070        42.43369        -1.60120
C         47.76279        44.42118        -0.73242
C         46.45199        43.86596        -1.23706
C         47.76645        45.54260         0.22700
C         46.51424        46.17089         0.57521
C         47.78109        47.74868         2.02596
C         46.54888        47.29696         1.50117
C         47.78367        48.84792         2.93543
C         46.62414        49.48901         3.29731
C         50.15857        25.53441         2.76704
C         48.93340        26.09729         2.34511
C         50.17804        28.08774         1.58841
C         48.93471        27.40251         1.77895
C         50.19458        29.37326         0.96030
C         48.97078        29.96970         0.52780
C         50.20998        31.92947        -0.33488
C         49.00143        31.21408        -0.14687
C         50.20985        33.27204        -0.85732
C         48.98122        33.94893        -1.14129
C         50.23227        36.05869        -1.28068
C         48.94307        35.33809        -1.32897
C         50.23844        37.52952        -1.56936
C         48.94823        38.19799        -1.82679
C         50.21098        40.26995        -2.21812
C         48.96688        39.57041        -2.10150
C         50.17113        41.74988        -2.07143
C         48.94040        42.39851        -1.54868
C         50.21764        44.16476        -0.37267
C         48.98985        43.59846        -0.86072
C         50.24413        45.30793         0.43861
C         48.99226        45.97480         0.77682
C         50.26560        47.57131         2.13834
C         49.01787        47.10007         1.65817
C         51.35647        26.20863         2.60729
C         52.65864        28.17083         1.77327
C         51.40450        27.48497         2.00091
C         52.65954        29.43114         1.11948
C         51.42496        30.04316         0.71566
C         52.67263        31.97689        -0.19168
C         51.43576        31.31981         0.07944
C         52.67923        33.25755        -0.80156
C         51.45407        33.94442        -1.06362
C         52.67935        35.94703        -1.91414
C         51.49247        35.31269        -1.46867
C         52.67898        37.37764        -2.21164
C         51.49387        38.14470        -2.04224
C         52.71806        40.28381        -2.34762
C         51.43672        39.56083        -2.22618
C         52.75360        41.77009        -2.10917
C         51.46612        42.47004        -1.79659
C         52.78051        44.00013        -0.16692
C         51.45951        43.44143        -0.66580
C         52.75518        45.26984         0.56341
C         51.50169        45.84025         0.92717
C         51.45701        46.98223         1.77525
C         55.09985        28.23233         1.89329
C         53.90510        27.60331         2.16546
C         55.12639        29.47530         1.20354
C         53.89644        30.08527         0.83131
C         55.14044        31.92711        -0.23862
C         53.90966        31.33761         0.14439
C         55.12730        33.13040        -1.04421
C         53.90450        33.85100        -1.22868
C         55.01965        35.33561        -2.73849
C         53.87313        35.08733        -1.95945
C         55.07153        37.55957        -3.11541
C         53.91122        38.12419        -2.54348
C         55.22654        40.21120        -2.31530
C         53.98538        39.52526        -2.31324
C         55.33591        41.64909        -1.91168
C         54.04225        42.43996        -1.73030
C         55.24351        44.07942        -0.32105
C         54.03964        43.54256        -0.76899
C         55.20857        45.25766         0.50151
C         54.01970        45.85556         0.86436
C         56.34992        30.11867         0.86820
C         56.35505        31.29487         0.15047
C         56.28900        33.55333        -1.72382
C         56.21012        34.60280        -2.62573
C         56.29701        38.22796        -3.18367
C         56.39282        39.52836        -2.69416
C         56.49573        42.12821        -1.14217
C         56.47432        43.34302        -0.52900
O         44.64351        37.77388        -3.44973
O         41.69106        25.90597         3.16308
O         33.79968        38.93539        -2.72793
O         50.32765        37.03510        -0.17019
O         31.33882        34.53632        -2.65568
O         29.73226        39.80327         1.01870
O         34.57653        42.48530        -2.09460
O         54.99231        36.31065        -3.74066
O         42.25759        28.94811        -1.18350
O         38.84908        22.74707        -0.28482
O         32.20009        26.68475        -1.47313
O         37.70534        32.16166        -2.46805
O         52.08525        42.85999         0.53187
O         42.15129        22.09214         0.78789
O         30.60406        36.42096         0.49673
O         50.75469        42.73031        -3.02642
O         54.90198        42.64102        -2.89525
O         47.82931        32.05102        -2.16415
O         37.61177        28.68519         1.65124
O         40.21677        41.51744        -2.82770
O         45.16685        24.99123         4.03543
O         44.37199        30.18657         1.67823
O         28.12489        37.46857         0.68119
O         42.06128        31.92056         0.71920
O         42.92325        23.47173         4.00667
O         52.75636        41.25790        -3.46007
O         40.53495        35.37205        -3.20451
O         47.68296        41.25860        -3.34411
O         47.27790        44.71371        -2.11501
O         44.57417        30.89540        -1.88865
O         42.93580        35.86910        -3.83613
H         42.08807        36.19592        -4.22369
O         35.26655        43.50307         1.94646
H         35.86083        44.04525         2.53108
O         43.85321        47.34810        -0.91170
H         44.01385        46.75121        -1.69080
O         37.85013        36.09760         0.51184
H         37.04951        36.56274         0.83679
O         38.56311        39.60662        -3.50379
H         38.87802        40.46830        -3.86177
O         41.35012        38.19484        -3.82823
H         42.18738        38.59348        -4.15160
O         36.75708        25.22101        -1.33014
H         36.97334        24.27801        -1.49773
O         44.80721        45.26962        -2.24061
H         45.66881        45.47284        -2.68087
O         36.65286        45.64063         2.88621
H         35.99914        46.17932         3.38363
O         31.02123        38.24572        -2.63929
H         31.81988        38.56752        -3.12596
H         26.90986        26.86990         0.09497
H         25.65801        28.92282        -0.40160
H         25.60640        31.32758        -0.90682
H         25.58649        33.21701        -1.24625
H         25.58308        35.65973        -1.27478
H         25.66409        37.76290        -1.54981
H         25.73497        40.15286        -1.25042
H         25.63656        41.99833        -0.37746
H         25.71561        44.41837         0.01893
H         27.01184        46.48977         0.51143
H         29.05896        25.66931         0.30488
H         29.15145        47.63124         0.90493
H         32.87638        23.72253         1.16146
H         30.75112        24.83516         0.88574
H         32.98906        49.50973         1.83370
H         30.85159        48.46763         1.34681
H         34.52843        22.69159         0.94157
H         34.67543        50.38717         2.02355
H         36.64514        21.50503         0.99014
H         36.80746        51.39844         2.62147
H         40.49426        19.60950         2.33384
H         38.41586        20.61601         1.53823
H         40.56265        52.86272         4.37455
H         38.41437        51.98884         3.54935
H         42.99282        19.73588         2.79942
H         43.01562        52.62336         4.65881
H         44.92479        21.08683         3.41309
H         45.10008        51.39692         4.23393
H         48.63525        23.42942         2.79458
H         46.59044        22.14879         2.97771
H         48.72764        49.20334         3.36664
H         46.68257        50.33054         3.99984
H         50.17266        24.54662         3.24616
H         50.30683        48.43961         2.80760
H         52.27855        25.72468         2.95435
H         52.39003        47.39812         2.17677
H         56.04932        27.76814         2.19666
H         53.92695        26.63882         2.68970
H         56.16105        45.70717         0.81646
H         54.06140        46.79311         1.43533
H         57.29887        29.65363         1.17197
H         57.31828        31.75763        -0.10366
H         57.23125        33.00024        -1.62065
H         57.06701        34.87319        -3.25576
H         57.16518        37.72475        -3.62732
H         57.35747        40.05297        -2.71206
H         57.40318        41.50816        -1.09936
H         57.37910        43.71514        -0.02565
