         324
 CSIRO Nanostructure Databank - Neutral Graphene Oxide Data Set
C          1.31740         1.97899         0.87426
C          1.24974         3.39950         0.66837
C          2.49736         1.30157         0.94058
C          2.37368         4.15365         0.42776
C          1.22410         6.34617         0.66877
C          1.25673         7.71145         0.83966
C          2.39508         5.61462         0.33467
C          2.46730         8.43693         0.69986
C          1.38511        10.57172         1.42596
C          1.42447        11.92705         1.68297
C          2.54942         9.83927         1.01171
C          2.63377        12.65606         1.64400
C          1.51814        14.82706         2.24430
C          1.53544        16.15982         2.49457
C          2.70106        14.05639         1.88500
C          2.79091        16.92709         2.46737
C          2.78316        18.41181         2.37279
C          3.76949         2.01882         0.83923
C          3.69269         3.49006         0.50993
C          5.04744         1.33034         0.61522
C          4.79330         4.09818        -0.29287
C          3.59157         6.32390         0.08917
C          3.63804         7.73812         0.27301
C          4.77469         5.59843        -0.44615
C          4.84500         8.46589         0.03152
C          3.78558        10.50316         0.91382
C          3.92339        11.87751         1.53066
C          4.92769         9.83413         0.37927
C          5.07447        12.68428         0.98704
C          3.92627        14.73974         1.68649
C          4.00606        16.17794         1.99530
C          5.09534        14.08713         1.17970
C          5.08032        16.95308         1.30927
C          3.85469        19.11149         1.95600
C          5.03659        18.44870         1.34721
C          6.18489         2.01016         0.19305
C          6.07529         3.34172        -0.48310
C          7.46022         1.43979         0.38628
C          7.30885         4.09106        -0.94670
C          6.06961         6.28737        -0.67399
C          5.99413         7.77127        -0.60887
C          7.25292         5.61627        -0.97299
C          7.30777         8.54330        -0.63360
C          6.17890        10.57899         0.24938
C          6.21477        11.99315         0.51704
C          7.35942         9.92888        -0.12837
C          7.41252        12.72591         0.24028
C          6.30999        14.83697         0.91928
C          6.36481        16.26182         1.08424
C          7.45023        14.15244         0.43828
C          7.55128        16.99779         0.94990
C          6.31435        19.14114         1.18320
C          7.51622        18.47904         0.95510
C          8.65094         2.07649        -0.04185
C          8.59579         3.32455        -0.77099
C          9.89766         1.44931         0.17907
C          9.73021         3.66271        -1.48509
C          8.49890         6.40553        -1.08072
C          8.53453         7.76205        -0.72359
C          9.72382         5.87739        -1.62178
C          9.79935         8.45889        -0.45646
C          8.59571        10.63865        -0.22649
C          8.58219        12.04291        -0.13055
C          9.84240         9.93095        -0.43421
C          9.76893        12.78182        -0.69158
C          8.66753        14.87445         0.23715
C          8.74098        16.23994         0.63953
C          9.84461        14.23557        -0.26713
C         10.03356        16.79832         0.72589
C          8.63239        19.31428         0.55858
C          9.97395        18.93656         0.66143
C         11.10064         1.98759        -0.33689
C         11.01120         3.09031        -1.24466
C         12.38782         1.47156        -0.04818
C         12.21198         3.66965        -1.73593
C         10.99137         6.47112        -1.47898
C         11.10520         7.74355        -0.75833
C         12.20250         5.88379        -1.92843
C         12.34274         8.51469        -0.95379
C         11.06466        10.58908        -0.53289
C         11.08380        12.08034        -0.29680
C         12.32098         9.91403        -0.75791
C         12.27082        12.75967        -0.94991
C         11.03503        14.94086        -0.44203
C         11.15742        16.29715         0.02735
C         12.23972        14.26761        -0.98139
C         12.29052        17.12101        -0.26148
C         11.13301        19.37793         0.00640
C         12.31100        18.56393        -0.15292
C         13.55648         2.11643        -0.49508
C         13.47147         3.33554        -1.26167
C         14.82615         1.52486        -0.23649
C         14.69476         4.12441        -1.65785
C         13.48888         6.40270        -1.60307
C         13.53036         7.81021        -1.27975
C         14.70466         5.63879        -1.68933
C         14.77649         8.50085        -1.29987
C         13.57155        10.63123        -0.85029
C         13.57628        12.08432        -0.88323
C         14.76889         9.91595        -1.05195
C         14.72538        12.84752        -1.04349
C         13.51568        14.99597        -1.02437
C         13.42344        16.47750        -0.97000
C         14.69731        14.29536        -1.19184
C         14.69529        17.26925        -1.19450
C         13.54180        19.26047        -0.32383
C         14.76323        18.63625        -0.64071
C         16.01126         2.10923        -0.67178
C         16.01119         3.42481        -1.36473
C         17.24686         1.48094        -0.43414
C         17.27735         4.18849        -1.33388
C         15.94202         6.34396        -1.69762
C         15.96854         7.76393        -1.57164
C         17.23654         5.58511        -1.82067
C         17.22511         8.53905        -1.74169
C         16.04248        10.64210        -0.94617
C         16.02658        12.17123        -0.92703
C         17.28817         9.95111        -1.32887
C         17.25677        12.89762        -1.28208
C         15.97599        15.00812        -1.48661
C         15.97348        16.53391        -1.45395
C         17.27508        14.28318        -1.37584
C         17.23437        17.23887        -1.19535
C         16.00686        19.26537        -0.51929
C         17.24466        18.59137        -0.78762
C         18.47261         2.13277        -0.67857
C         18.47304         3.54115        -1.07174
C         19.67766         1.45031        -0.47337
C         19.74942         4.23793        -1.10294
C         18.57783         6.31434        -1.87595
C         18.57020         7.81765        -1.90492
C         19.79948         5.62170        -1.39023
C         19.77954         8.55256        -1.49877
C         18.48663        10.63810        -1.33825
C         18.48425        12.12324        -1.47116
C         19.75046         9.92253        -1.35083
C         19.77680        12.90920        -1.46652
C         18.50774        15.02708        -1.42020
C         18.47974        16.50787        -1.45274
C         19.74935        14.37405        -1.28817
C         19.78301        17.25508        -1.17296
C         18.47853        19.28329        -0.57466
C         19.72693        18.65986        -0.70248
C         20.92781         2.11501        -0.53706
C         20.94991         3.53368        -0.79489
C         22.12969         1.43026        -0.29721
C         22.18606         4.22794        -0.70716
C         21.02160         6.32695        -1.23112
C         21.05906         7.80072        -1.44393
C         22.18992         5.63942        -0.85944
C         22.31185         8.55655        -1.16467
C         20.95189        10.68496        -0.88010
C         20.96384        12.17288        -0.95495
C         22.29312         9.98063        -0.63901
C         22.22277        12.92322        -0.86490
C         20.97973        15.05059        -0.99644
C         21.00309        16.47548        -0.88664
C         22.20841        14.29642        -0.81749
C         22.18546        17.19307        -0.69041
C         20.94906        19.31968        -0.47210
C         22.19270        18.63087        -0.58635
C         23.36930         2.10906        -0.25585
C         23.40763         3.51937        -0.42724
C         24.58573         1.39784        -0.00801
C         24.66972         4.19884        -0.33867
C         23.44201         6.34931        -0.51194
C         23.51816         7.83589        -0.66315
C         24.71334         5.61800        -0.42452
C         24.82364         8.50426        -0.78740
C         23.54897        10.73101        -1.13194
C         23.55005        12.20743        -0.74040
C         24.86383         9.94436        -1.17096
C         24.56624        13.08053        -1.42541
C         23.50695        15.02182        -0.44215
C         23.46038        16.46831        -0.85522
C         24.73167        14.36023        -1.05417
C         24.76450        17.21010        -0.89316
C         23.42265        19.30762        -0.48283
C         24.68870        18.63736        -0.49187
C         25.80770         2.03352         0.07383
C         25.87727         3.46643        -0.12334
C         27.03548         1.22375         0.25003
C         27.10137         4.19652        -0.07602
C         25.91487         6.34175        -0.28600
C         25.96145         7.79685        -0.44600
C         27.12219         5.60010        -0.11492
C         27.21596         8.50647        -0.22125
C         26.18313        10.62475        -0.96284
C         26.41068        11.93554        -1.34562
C         27.28020         9.91825        -0.35754
C         27.42160        12.80327        -0.79869
C         26.09212        15.04361        -1.29811
C         26.03509        16.45583        -0.72173
C         27.30395        14.21765        -0.74023
C         27.12934        17.07057        -0.19266
C         25.80772        19.23964         0.02506
C         27.06571        18.49201         0.34216
C         27.91771         1.29657         1.28645
C         28.45878         3.56183         0.02162
C         27.66430         1.91160         2.60672
C         29.32453         4.16581         1.12657
C         28.39316         6.33514         0.09164
C         28.36045         7.79761         0.19024
C         29.55815         5.61667         0.82781
C         29.52425         8.49287         0.61871
C         28.49712        10.62360        -0.08715
C         28.55796        12.07904        -0.22793
C         29.59786         9.90195         0.42712
C         29.69241        12.78243         0.13882
C         28.43474        14.96954        -0.25708
C         28.39472        16.35973        -0.05487
C         29.70989        14.25013        -0.00228
C         29.55201        17.11300         0.41484
C         28.32451        19.25545        -0.10583
C         29.51562        18.53271         0.46524
C         28.40856         2.86877         3.18992
C         29.43323         3.75184         2.57546
C         30.10394         4.72526         3.47789
C         30.34396         6.44729         1.73993
C         30.49990         7.81337         1.44431
C         30.64449         5.89507         3.04106
C         31.54603         8.60143         2.05735
C         30.87038        10.57966         0.74965
C         30.92808        12.10173         0.57939
C         31.77220         9.88506         1.68755
C         31.89532        12.88660         1.37654
C         30.87174        15.00845         0.64401
C         30.71720        16.45705         0.88823
C         31.83907        14.22688         1.44366
C         31.75383        17.20201         1.47737
C         30.56784        19.25438         1.02509
C         31.68010        18.58955         1.55320
O         10.58355         7.78894         0.61044
O         21.96810         8.28405        -2.53748
O         30.86894        14.70259        -0.79061
O         24.09564        10.30360        -2.38794
O          4.62351        17.68165         0.11932
O         15.43149         3.44975        -2.72655
O         31.53352        11.20041        -0.40514
O         23.27303         7.24994         0.66384
O          6.45468         8.42259        -1.83329
O         29.60465         5.87854        -0.59402
O          6.46134         3.36310        -1.89435
O          3.82678        16.46536         3.42720
O         10.21240        17.87361         1.57732
O         28.94440         2.83495        -0.82438
O         13.72100        17.13093        -2.26293
O         15.94211        15.79691        -2.71949
O         12.12313         4.71456        -2.67647
O         25.51501        12.49558        -2.26516
O         24.07442        16.82379        -2.13000
O         12.02214        13.45859        -2.20753
O          9.63699         4.72869        -2.39957
O         20.60050        11.47248         0.32823
O         16.16542        11.39313         0.32159
O         19.21959        12.46066        -2.72752
O         17.87160         8.35639        -3.05222
O          4.33835         4.69079        -1.53203
O         19.29540        17.08417        -2.53631
O          4.01406         3.09496         1.87643
O         17.98034         5.74494        -3.07623
O         30.39986         3.29954         1.55530
O         23.59575        14.99841         1.00557
H         23.69012        14.04628         1.25963
O         23.93598        12.21771         0.68413
H         23.46934        11.44785         1.10268
O          9.54989        12.69907        -2.11720
H         10.31784        13.12981        -2.56896
O          4.30785        11.60123         2.94620
H          4.32760        12.46556         3.41188
O         22.47758         9.88306         0.80181
H         21.67898        10.27510         1.23023
O         11.23407        12.27935         1.13941
H         11.86880        11.61509         1.48128
O         27.14589        18.43709         1.79873
H         26.36296        17.94677         2.12607
O         26.31738        15.16725        -2.71699
H         26.16689        14.28067        -3.11528
O         29.11923         0.66529         1.20931
H         29.30107         0.41803         0.28032
O         28.39554        19.31112        -1.53169
H         28.48381        18.39813        -1.87717
H          0.37022         1.42693         0.95519
H          0.25273         3.86091         0.65621
H          2.51284         0.20389         1.00322
H          0.27797         5.81330         0.83039
H          0.33010         8.22577         1.12368
H          0.41446        10.06344         1.48280
H          0.47859        12.44141         1.90126
H          0.55303        14.30451         2.29103
H          0.59512        16.69564         2.69273
H          1.88843        18.93825         2.73952
H          5.15985         0.30903         1.01137
H          3.84038        20.21197         1.97677
H          7.53328         0.46771         0.89514
H          6.31652        20.24095         1.22954
H          9.93030         0.52554         0.77426
H          8.38861        20.28523         0.10237
H         12.48201         0.55817         0.55629
H         11.14813        20.37660        -0.45419
H         14.86530         0.56659         0.30130
H         13.55306        20.33667        -0.09589
H         17.25582         0.46418        -0.01451
H         16.04550        20.30621        -0.16572
H         19.65107         0.38228        -0.21188
H         18.43675        20.33666        -0.26130
H         22.10514         0.34465        -0.12186
H         20.94867        20.39540        -0.24237
H         24.53232         0.30787         0.12677
H         23.41613        20.39202        -0.29247
H         27.35183         0.65009        -0.63741
H         25.74544        20.27771         0.38838
H         26.83474         1.47925         3.19125
H         28.28725        20.30684         0.27043
H         28.13382         3.16843         4.21510
H         30.23539         4.43135         4.53010
H         31.18501         6.53029         3.75815
H         32.24595         8.10212         2.74233
H         32.66329        10.40759         2.06070
H         32.67486        12.35138         1.93609
H         32.54305        14.76351         2.09540
H         32.65684        16.69601         1.84435
H         30.51735        20.35229         1.05300
H         32.50787        19.16078         1.99490
