         244
 CSIRO Nanostructure Databank - Neutral Graphene Oxide Data Set
C          1.65849         2.18286        -2.04081
C          1.58733         3.58641        -1.77127
C          2.83966         1.49571        -1.93606
C          2.66965         4.28932        -1.28815
C          1.46657         6.47966        -1.28988
C          1.42785         7.83884        -1.13834
C          2.64842         5.71019        -1.01235
C          2.51045         8.56434        -0.53941
C          1.30715        10.72939        -0.70218
C          1.30184        12.08301        -0.69574
C          2.46972         9.93600        -0.35650
C          2.51792        12.85450        -0.37847
C          1.35162        15.15647        -0.72650
C          1.44557        16.50331        -0.79460
C          2.55470        14.34874        -0.40798
C          2.71328        17.18051        -0.58792
C          2.86158        18.54501        -0.94892
C          4.03530         2.16095        -1.49860
C          3.91361         3.53420        -0.86721
C          5.26258         1.55409        -1.55597
C          5.16357         4.37684        -1.12615
C          3.79087         6.37173        -0.51078
C          3.62385         7.74849         0.09420
C          5.06012         5.73625        -0.47355
C          4.92428         8.50837         0.22297
C          3.61339        10.63165         0.29218
C          3.60724        12.13444         0.36192
C          4.90461         9.90046         0.40395
C          4.88188        12.88074         0.54793
C          3.61770        15.05103         0.42626
C          3.82087        16.46872        -0.07709
C          4.91069        14.25510         0.52733
C          5.06186        17.10678         0.08403
C          4.07496        19.18317        -0.80355
C          5.20510        18.49204        -0.27412
C          6.47376         2.22871        -1.14365
C          6.42471         3.62725        -0.78611
C          7.68043         1.55345        -1.11857
C          7.54465         4.28034        -0.29155
C          6.21206         6.38906        -0.00819
C          6.14511         7.79847         0.33228
C          7.47716         5.68628         0.12145
C          7.30441         8.48476         0.77215
C          6.09780        10.60508         0.68110
C          6.16754        12.10427         0.48441
C          7.28537         9.88477         0.93002
C          7.34466        12.77726         1.14455
C          6.14363        14.99210         0.76751
C          6.18679        16.36908         0.62404
C          7.28539        14.25481         1.45010
C          7.38071        17.14889         1.03575
C          6.43410        19.15761        -0.10632
C          7.54201        18.54325         0.54023
C          8.89427         2.22667        -0.75660
C          8.80845         3.58899        -0.24357
C         10.11053         1.58386        -0.84729
C          9.94428         4.20501         0.29966
C          8.57446         6.28582         0.72753
C          8.48841         7.68706         1.17423
C          9.74964         5.41965         1.18903
C          9.77431         8.45058         1.57046
C          8.47022        10.60396         1.55395
C          8.50367        12.08285         1.25399
C          9.79811         9.90023         1.38873
C          9.80458        12.76585         0.92109
C          8.63158        14.93365         1.31878
C          8.64448        16.40095         1.43517
C          9.80961        14.24593         1.22156
C          9.92033        17.10928         1.30295
C          8.73030        19.21655         0.72754
C          9.90007        18.61190         1.46668
C         11.37720         2.35857        -0.69770
C         11.21535         3.58416         0.18177
C         12.56763         1.52043        -0.32536
C         12.38613         4.20633         0.63914
C         11.05904         6.19552         1.41547
C         11.07497         7.69852         1.62997
C         12.35212         5.57219         1.08064
C         12.33490         8.42859         1.43058
C         11.01359        10.62814         1.41504
C         11.03637        12.02227         1.34098
C         12.35058         9.92436         1.61993
C         12.32095        12.78640         1.56697
C         11.08489        14.94302         1.15056
C         11.08560        16.39463         1.10039
C         12.28352        14.24044         1.13820
C         12.34221        17.08398         0.90823
C         11.18728        19.25514         1.04493
C         12.33566        18.54437         0.81046
C         13.68457         2.10540         0.17970
C         13.66130         3.52783         0.53838
C         14.90861         1.36048         0.47298
C         14.82418         4.15720         0.91468
C         13.53113         6.29384         1.25822
C         13.54331         7.73673         1.36883
C         14.79517         5.55302         1.35875
C         14.80724         8.44916         1.18206
C         13.41019        10.56477         0.71495
C         13.50273        12.05587         0.96793
C         14.75404         9.86467         0.84606
C         14.62540        12.74146         0.60376
C         13.53060        14.92532         0.90371
C         13.51689        16.36335         0.78387
C         14.71488        14.19130         0.66813
C         14.80082        17.09345         0.66992
C         13.55344        19.21166         0.42344
C         14.75336        18.53337         0.30740
C         16.07581         1.99480         0.72935
C         16.14453         3.49959         0.59607
C         17.32957         1.25445         1.13624
C         17.33983         4.11816         1.33990
C         16.13325         6.34170         1.37065
C         16.04092         7.78423         1.09232
C         17.36844         5.61519         1.07857
C         17.24879         8.44843         0.67790
C         15.88582        10.54435         0.50506
C         15.76716        11.95703         0.07088
C         17.26039         9.95666         0.72494
C         16.97494        12.66800        -0.41121
C         15.94893        14.84496         0.27415
C         16.06875        16.32041         0.45025
C         16.99752        14.14623        -0.28701
C         17.34614        17.05960         0.01799
C         15.91711        19.15944        -0.21885
C         17.09842        18.46845        -0.50410
C         18.58766         2.03243         0.80814
C         18.59095         3.40228         0.90037
C         19.79504         1.32395         0.48478
C         19.87333         4.17991         0.87323
C         18.48904         6.29745         0.60751
C         18.42750         7.74622         0.41551
C         19.73004         5.60331         0.39349
C         19.61033         8.44024        -0.07992
C         18.37047        10.61145        -0.07347
C         18.26599        11.92663        -0.45303
C         19.59406         9.85400        -0.30504
C         19.46980        12.69721        -0.81501
C         18.07751        14.84665        -1.00921
C         18.22115        16.28366        -0.93669
C         19.33536        14.04819        -1.42508
C         19.29604        16.91898        -1.55295
C         18.15319        19.09100        -1.19352
C         19.29338        18.37104        -1.63590
C         20.95747         2.00904         0.18733
C         21.00519         3.42439         0.23399
C         22.11535         4.15254        -0.22044
C         20.85535         6.26701        -0.10535
C         20.77760         7.69554        -0.40067
C         22.06322         5.53668        -0.33433
C         21.87518         8.35365        -0.99482
C         20.73849        10.48996        -0.85623
C         20.78601        11.96342        -0.99989
C         21.85480         9.71895        -1.22180
C         21.81507        12.66555        -1.78821
C         20.54165        14.78176        -1.81418
C         20.44306        16.17783        -2.05244
C         21.72370        14.00194        -2.05961
C         21.51172        16.91880        -2.63522
C         20.37110        19.02935        -2.25310
C         21.46441        18.30151        -2.74429
O         11.11835         6.76952         2.77033
O         15.97354        12.14581        -1.38739
O          3.19300        11.34993         1.52347
O          3.08595        13.58526        -1.54458
O         18.23586        14.24077        -2.35029
O         20.46988        12.67760         0.25311
O         15.49193         5.88359         2.60561
O          7.72452        16.96865         2.46639
O          8.83668         7.94422         2.59376
O         15.69398        16.76001         1.80492
O         11.68232         2.90335        -2.05144
H         10.85693         3.31485        -2.38645
O          9.82400        12.68601        -0.56424
H          8.89115        12.69912        -0.88031
O          3.83177         3.34238         0.56981
H          3.00703         2.85092         0.76439
O         12.53177        12.84974         3.01798
H         12.69442        11.91999         3.32142
O          9.70325        18.89476         2.89416
H          8.90442        18.38208         3.16580
O          6.94764        14.32087         2.87832
H          7.09675        15.25717         3.15622
O         12.77688        10.14160         3.00066
H         12.22335         9.57733         3.58215
O         18.15291        17.22677         1.22115
H         17.51561        17.36840         1.96074
O         17.17108         3.86702         2.76019
H         17.90719         4.32287         3.22340
O          5.20151         4.60793        -2.56904
H          6.01109         5.12102        -2.77253
O         12.94399        10.37314        -0.64749
H         13.56811        10.83651        -1.24668
O         17.28437         1.06043         2.56512
H         17.17771         1.95888         2.96564
O          6.57543        12.22358        -0.95960
H          5.77492        12.43393        -1.48966
O         16.39787         3.79676        -0.81406
H         15.69090         3.36836        -1.34269
O         17.60259        10.29536         2.12139
H         16.97548         9.81582         2.70431
O         20.23725         4.30598         2.32568
H         20.54716         3.41912         2.61226
O          8.20875        10.55813         3.00149
H          8.23004         9.60341         3.26006
O          3.17462         7.50823         1.47458
H          3.08475         8.38245         1.91208
O          9.35342         4.89426         2.48327
H          9.51586         5.61597         3.13520
O          3.05905        15.14716         1.76688
H          3.75239        15.50605         2.35965
H          0.75469         1.67206        -2.40134
H          0.64113         4.09535        -2.00250
H          2.89960         0.43922        -2.23723
H          0.58915         5.97889        -1.71995
H          0.53790         8.38024        -1.48675
H          0.38312        10.20782        -0.98656
H          0.39276        12.62438        -0.99271
H          0.40557        14.65031        -0.96529
H          0.57117        17.11033        -1.07250
H          1.99520        19.08747        -1.35412
H          5.34677         0.52023        -1.92613
H          4.18308        20.24135        -1.08150
H          7.72955         0.49805        -1.42433
H          6.52886        20.20254        -0.43605
H         10.15731         0.53984        -1.19139
H          8.80895        20.26125         0.38973
H         12.55871         0.44756        -0.57052
H         11.20814        20.35367         0.97732
H         14.85450         0.26081         0.49130
H         13.51375        20.28773         0.19606
H         17.35982         0.23972         0.66508
H         15.84235        20.21801        -0.51488
H         19.76813         0.22662         0.42771
H         18.07241        20.16077        -1.44276
H         21.85022         1.45914        -0.14664
H         23.01906         3.61447        -0.54383
H         22.96175         6.05642        -0.68911
H         22.77487         7.79501        -1.27957
H         22.73856        10.19982        -1.66126
H         22.71408        12.12003        -2.10673
H         22.57714        14.48888        -2.55332
H         22.38984        16.38730        -3.02677
H         20.35629        20.12505        -2.34255
H         22.30025        18.83550        -3.21780
