         324
 CSIRO Nanostructure Databank - Neutral Graphene Oxide Data Set
C          1.48568         1.96310         0.94766
C          1.41244         3.36194         0.83007
C          2.63103         1.28774         0.57120
C          2.47501         4.10723         0.30625
C          1.37279         6.28568         0.77460
C          1.39437         7.69459         0.86541
C          2.40475         5.56093         0.20184
C          2.46224         8.46162         0.41884
C          1.52206        10.54817         1.44426
C          1.49235        11.89242         1.62012
C          2.53725         9.88268         0.65810
C          2.42369        12.77269         0.90805
C          1.48653        14.86418         1.92402
C          1.54264        16.22499         2.19429
C          2.56425        14.19596         1.30998
C          2.69425        16.96885         1.86718
C          2.75958        18.38262         2.11111
C          3.73974         2.00112         0.04330
C          3.65826         3.41963        -0.12054
C          4.92086         1.30567        -0.33796
C          4.77704         4.12169        -0.66710
C          3.43072         6.29160        -0.55826
C          3.49267         7.82949        -0.42838
C          4.66970         5.57060        -1.01285
C          4.76136         8.56104        -0.68830
C          3.63440        10.60495         0.17246
C          3.59863        12.08469         0.20786
C          4.76116         9.93808        -0.42742
C          4.86021        12.84588         0.09102
C          3.74193        14.90641         0.98253
C          3.80980        16.30299         1.27838
C          4.89708        14.23696         0.41170
C          4.98847        17.04885         0.97868
C          3.87582        19.10184         1.79027
C          5.02992        18.45780         1.22343
C          6.02836         1.99656        -0.79096
C          5.95205         3.41458        -0.92659
C          7.25638         1.26743        -1.30619
C          7.19578         4.12443        -1.30606
C          5.90604         6.37987        -1.38623
C          5.95884         7.86947        -1.14936
C          7.20452         5.60727        -1.48800
C          7.15972         8.55961        -1.29552
C          5.91348        10.77133        -0.81902
C          6.01306        12.17407        -0.34136
C          7.19613        10.04120        -1.21966
C          7.24842        12.86883        -0.44799
C          6.09459        14.96396         0.19532
C          6.13445        16.38897         0.44517
C          7.28205        14.27582        -0.21417
C          7.28821        17.14087         0.15029
C          6.19587        19.18276         0.93679
C          7.34588        18.54215         0.41858
C          8.54226         1.98750        -0.95633
C          8.44571         3.45445        -0.82331
C          9.74765         1.36627        -0.81883
C          9.70635         4.24776        -0.71141
C          8.50640         6.36964        -1.48542
C          8.45086         7.86875        -1.60071
C          9.75501         5.68356        -1.04402
C          9.78487         8.64237        -1.55394
C          8.47141        10.76227        -0.98385
C          8.47425        12.16812        -0.72971
C          9.68921        10.06834        -1.02605
C          9.70674        12.89018        -0.69256
C          8.50095        14.99384        -0.39835
C          8.45643        16.46099        -0.42050
C          9.72797        14.32165        -0.58281
C          9.77687        17.22480        -0.48551
C          8.57402        19.26076         0.28667
C          9.78601        18.63082        -0.02677
C         10.98514         2.09168        -0.58686
C         10.97632         3.52119        -0.60009
C         12.19949         1.39731        -0.42788
C         12.14409         4.26885        -0.37131
C         10.91774         6.37220        -0.77641
C         10.87386         7.85528        -0.80305
C         12.15220         5.69318        -0.38978
C         12.14020         8.59640        -0.57883
C         10.89799        10.77025        -0.85666
C         10.93981        12.18459        -0.77360
C         12.15148        10.01390        -1.05904
C         12.18635        12.90002        -0.70419
C         10.98895        15.03462        -0.56590
C         11.02840        16.45058        -0.44876
C         12.22454        14.29982        -0.57645
C         12.24858        17.15413        -0.32252
C         11.02616        19.28522         0.05764
C         12.25152        18.59291        -0.14354
C         13.40542         2.06820        -0.10480
C         13.31966         3.53213         0.12243
C         14.63393         1.40800        -0.00211
C         14.57790         4.31055         0.41008
C         13.39324         6.39862        -0.19633
C         13.43265         7.91905        -0.12858
C         14.60966         5.74164         0.04599
C         14.68516         8.48467        -0.77444
C         13.44541        10.73549        -1.14188
C         13.44142        12.13152        -0.62904
C         14.72587         9.93545        -1.15946
C         14.76856        12.84506        -0.48889
C         13.50138        15.00634        -0.53101
C         13.49981        16.45984        -0.41526
C         14.71099        14.30932        -0.57059
C         14.69873        17.18802        -0.33508
C         13.46874        19.29517        -0.11381
C         14.72019        18.62829        -0.20433
C         15.87099         2.07098         0.28343
C         15.84256         3.52498         0.59808
C         17.08559         1.39533         0.27575
C         17.14177         4.28178         0.59290
C         15.89713         6.43115        -0.06470
C         15.94100         7.75648        -0.48557
C         17.14653         5.72960         0.24155
C         17.19204         8.47533        -0.77528
C         16.02889        10.71860        -1.33028
C         16.02930        12.13779        -0.78265
C         17.21900         9.94468        -0.82214
C         17.25149        12.82350        -0.61137
C         15.99131        14.99706        -0.75042
C         15.97428        16.51167        -0.58613
C         17.26189        14.27821        -0.49705
C         17.23074        17.15103        -0.13663
C         15.92898        19.35168        -0.27331
C         17.22695        18.71466        -0.07125
C         18.36515         2.07104         0.38575
C         18.35999         3.49543         0.38722
C         19.59003         1.37591         0.47296
C         19.63395         4.20628         0.46290
C         18.35740         6.38403         0.17738
C         18.46616         7.73396        -0.40726
C         19.63378         5.69869         0.48168
C         19.65624         8.54562        -0.01462
C         18.48949        10.67252        -0.87346
C         18.48685        12.12308        -0.66312
C         19.79661         9.93820        -0.51473
C         19.70835        12.77461        -0.20077
C         18.44646        14.99960        -0.39631
C         18.49689        16.44073        -0.35249
C         19.70657        14.29678        -0.08953
C         19.70476        17.14093        -0.30199
C         18.51360        19.33125        -0.33127
C         19.71338        18.59777        -0.34716
C         20.90796         2.10762         0.67547
C         20.80947         3.44541        -0.09325
C         22.16252         1.36241         0.27990
C         22.11546         4.24334        -0.15705
C         20.93564         6.37939         0.26426
C         20.92646         7.83901         0.38327
C         22.11901         5.70166         0.13732
C         22.20940         8.55298         0.32680
C         21.02184        10.67725        -0.12824
C         21.01286        12.08759        -0.20406
C         22.20878         9.98916         0.18932
C         22.20848        12.82343        -0.08333
C         20.98726        14.99600        -0.22762
C         20.96625        16.42600        -0.35775
C         22.19609        14.26450        -0.17876
C         22.16810        17.12654        -0.50029
C         20.96289        19.26299        -0.48545
C         22.19302        18.56765        -0.53773
C         23.36384         2.02108         0.05616
C         23.40843         3.50192        -0.16249
C         24.60779         1.33832         0.02892
C         24.72526         4.27980        -0.02517
C         23.39220         6.38217         0.40223
C         23.37201         7.83188         0.50687
C         24.56083         5.66136         0.59771
C         24.59607         8.58672         0.84883
C         23.44915        10.71130         0.25969
C         23.45742        12.12884         0.04466
C         24.65355        10.02797         0.53029
C         24.69207        12.82303        -0.00177
C         23.44740        14.93661        -0.31325
C         23.42024        16.37066        -0.62583
C         24.67627        14.25128        -0.23661
C         24.73744        17.13860        -0.50624
C         23.43040        19.26379        -0.52698
C         24.68766        18.61746        -0.37906
C         25.85010         2.00275         0.24631
C         25.88362         3.44746         0.48299
C         27.04018         1.27482         0.23507
C         27.04963         4.09724         0.78010
C         25.79635         6.32902         1.09099
C         25.83143         7.83660         1.19879
C         27.08506         5.56103         1.05220
C         27.17868         8.56021         1.30327
C         25.89986        10.70648         0.53041
C         25.92378        12.11194         0.21705
C         27.13054        10.00972         0.77886
C         27.16982        12.78879         0.15350
C         25.91657        14.98607        -0.19039
C         25.92038        16.36904        -0.11592
C         27.20651        14.21475        -0.35085
C         27.11192        17.11481         0.33439
C         25.87778        19.31328        -0.22841
C         27.12310        18.63506         0.17595
C         28.30891         1.85863         0.65811
C         28.31319         3.37311         0.99453
C         29.58820         1.27807         0.23680
C         29.57201         4.12069         0.83517
C         28.37566         6.28824         0.92565
C         28.31326         7.77523         0.60181
C         29.55363         5.57638         0.87752
C         29.61174         8.49982         0.81163
C         28.33791        10.70134         0.68591
C         28.37993        12.10264         0.37027
C         29.60192         9.95288         0.90479
C         29.65063        12.80979         0.24468
C         28.43389        14.94500         0.10988
C         28.40177        16.36544         0.40554
C         29.65615        14.24926         0.13916
C         29.72911        17.16589         0.20869
C         28.41507        19.27458        -0.10889
C         29.61135        18.58963        -0.17386
C         30.73266         2.01024         0.26978
C         30.74751         3.42819         0.55403
C         31.99239         4.15116         0.38301
C         30.87470         6.26662         0.95174
C         30.89005         7.79758         0.94791
C         32.06692         5.49055         0.55884
C         32.09745         8.52508         0.49561
C         30.93201        10.68902         0.65704
C         30.88123        12.12820         0.29292
C         32.08974         9.85447         0.27869
C         32.09110        12.84165         0.14550
C         30.90415        14.96366         0.02027
C         30.91033        16.39560        -0.20073
C         32.10124        14.22196        -0.00264
C         31.97273        17.07601        -0.78527
C         30.78882        19.21284        -0.71659
C         31.91848        18.47950        -0.99828
O         28.30552         2.36884         2.04105
O         31.05815         7.01161         2.20343
O         24.21418        16.71481        -1.81520
O          7.23033         4.67848        -2.64702
O         24.95831         8.29527         2.28317
O         12.70275        10.43326        -2.35932
O         22.78105         3.91069        -1.44054
O         14.07346        12.24426         0.69343
O         30.44920        10.45470         2.00897
O          6.31918        10.65559        -2.21865
O         14.60807         8.87503        -2.17619
O         19.73769         4.92048         1.74602
O         17.17199        17.82179         1.12459
O         19.98787         8.38957         1.38782
O         18.07264         7.80224        -1.80046
O          4.97592         5.91423        -2.40054
O          8.82484         3.97841         0.49874
O          2.46093        12.62030        -0.54860
O         11.14515         8.45480         0.50830
O         16.06118        15.90217        -1.91308
O         19.44694        10.14658        -1.89120
O          8.96168        17.02385        -1.68477
O         19.55425        13.46762         1.10997
O         13.64196         3.97909         1.49044
O         16.47445         3.89305         1.86264
O         26.36571         5.77791         2.33590
O         29.23452        16.78694         1.52040
O          8.50888         7.04082        -2.81165
O         26.92200        17.97353         1.49696
O          2.90266         7.16408        -1.59250
O         21.05641         2.37822         2.09897
H         20.34540         2.99287         2.38716
O         27.35336        14.09502        -1.82391
H         26.51801        13.71386        -2.17052
O         13.60325         8.25657         1.27300
H         12.74672         8.07025         1.72053
O         10.25779         8.81007        -2.90591
H          9.80405         8.13802        -3.46839
O         27.52803         8.62688         2.69102
H         26.69128         8.69258         3.20445
O         25.17590         4.62716        -1.37908
H         24.36204         4.67892        -1.93814
O         16.21562        10.87998        -2.77140
H         15.87277        10.06405        -3.20414
O          7.15189         1.17918        -2.74163
H          7.01772         2.08346        -3.09773
O         20.40189         3.13318        -1.44369
H         21.22516         3.05881        -1.98267
O         27.96528         7.83847        -0.83081
H         28.63567         7.33171        -1.33629
H          0.62662         1.41130         1.35346
H          0.48920         3.86207         1.15034
H          2.69878         0.19609         0.67957
H          0.54316         5.76540         1.27108
H          0.56047         8.17019         1.39710
H          0.78453         9.93749         1.98122
H          0.78010        12.32814         2.33480
H          0.56710        14.31204         2.16156
H          0.67967        16.73213         2.64845
H          1.88555        18.87945         2.55669
H          4.94670         0.20894        -0.25678
H          3.91411        20.18532         1.97384
H          7.28061         0.22008        -0.91647
H          6.22950        20.26176         1.14825
H          9.80590         0.26975        -0.89928
H          8.58629        20.32532         0.56517
H         12.20791         0.30122        -0.52253
H         11.05570        20.35518         0.31217
H         14.66344         0.32335        -0.18748
H         13.45228        20.38887         0.00094
H         17.08659         0.30543         0.12407
H         15.89013        20.44273        -0.40830
H         19.57394         0.27733         0.54291
H         18.53784        20.39744        -0.60089
H         22.18378         0.26975         0.41799
H         20.97416        20.36279        -0.50902
H         24.60445         0.23798         0.01731
H         23.40793        20.36397        -0.50619
H         27.03097         0.23241        -0.11752
H         25.87872        20.41237        -0.29014
H         29.60013         0.24235        -0.13380
H         28.38994        20.31706        -0.46292
H         31.68404         1.54593        -0.02971
H         32.89390         3.57668         0.12442
H         33.03846         5.99898         0.49412
H         33.00923         7.95004         0.28109
H         32.97603        10.33831        -0.15672
H         33.04899        12.30655         0.19240
H         33.06539        14.74094        -0.09107
H         32.87514        16.53203        -1.09704
H         30.75573        20.28839        -0.94208
H         32.79332        18.97868        -1.43743
