         200
 CSIRO Nanostructure Databank - Neutral Graphene Oxide Data Set
C        -11.04433         0.66816         0.62361
C         -9.83761         1.42649         0.39366
C         -8.62109         0.70142         0.13363
C         -7.43269         1.43393        -0.13879
C         -6.26308         0.69984        -0.62605
C         -4.93073         1.47920        -0.72570
C         -3.67844         0.70945        -0.80810
C         -2.47164         1.43818        -0.85989
C         -1.26080         0.76136        -1.34219
C          0.03509         1.49861        -1.29753
C          1.33994         0.68911        -1.22601
C          2.54893         1.40915        -0.79907
C          3.75074         0.66221        -0.60085
C          4.98580         1.39170        -0.36201
C          6.16581         0.71157        -0.02738
C          7.38148         1.39516         0.23479
C          8.58106         0.64660         0.58243
C          9.83057         1.37383         0.71677
C         11.03740         0.60438         0.94011
C         -9.82321         2.81946         0.40674
C         -8.60878         3.55483         0.25726
C         -7.39178         2.83457        -0.01239
C         -6.12582         3.53728         0.01870
C         -4.91959         2.82912        -0.18970
C         -3.61095         3.43280         0.09330
C         -2.40257         2.80237        -0.47384
C         -1.17555         3.52208        -0.44970
C          0.05113         2.87795        -0.79554
C          1.28954         3.54515        -0.66898
C          2.53340         2.81352        -0.69991
C          3.76755         3.53039        -0.49918
C          4.98999         2.81543        -0.37567
C          6.22576         3.51808        -0.20638
C          7.42782         2.79539         0.07573
C          8.67287         3.51938         0.29449
C          9.85347         2.75178         0.61843
C         -8.56816         4.95684         0.36598
C         -7.33338         5.65439         0.39414
C         -6.11574         4.92682         0.32685
C         -4.86179         5.64060         0.78575
C         -3.56530         4.88984         0.49575
C         -2.34312         5.64194         0.16235
C         -1.15575         4.93422        -0.14713
C          0.07668         5.65323        -0.23374
C          1.30416         4.95412        -0.41188
C          2.53939         5.66140        -0.33573
C          3.77366         4.94322        -0.37895
C          5.01868         5.64896        -0.27232
C          6.23489         4.93510        -0.25212
C          7.54669         5.66492        -0.38498
C          8.71358         4.88782         0.15748
C         -7.28762         7.08720         0.46576
C         -6.08072         7.79511         0.38258
C         -4.83160         7.09384         0.38613
C         -3.61957         7.77460         0.25819
C         -2.36433         7.05862         0.16805
C         -1.14649         7.77978         0.04061
C          0.08343         7.07344        -0.08630
C          1.31822         7.78637        -0.08460
C          2.54640         7.07679        -0.17273
C          3.79268         7.77946        -0.06736
C          5.01148         7.07802        -0.11601
C          6.26969         7.77616         0.09073
C          7.46500         7.09455         0.07376
C         -6.05078         9.23201         0.27729
C         -4.86751         9.90988         0.18796
C         -3.60596         9.21629         0.16816
C         -2.39323         9.90370         0.10793
C         -1.14512         9.21723         0.07603
C          0.08669         9.90571         0.08378
C          1.31623         9.21683         0.04381
C          2.56717         9.89821         0.14537
C          3.77556         9.21022         0.12363
C          5.03835         9.88808         0.31284
C          6.21647         9.20652         0.32568
C        -11.02814        -0.69477         0.63617
C         -9.80894        -1.44119         0.42403
C         -8.59791        -0.71712         0.13986
C         -7.37280        -1.43827        -0.07110
C         -6.18425        -0.75152        -0.44034
C         -4.95089        -1.43607        -0.59325
C         -3.71668        -0.72031        -0.85156
C         -2.50491        -1.45395        -0.95407
C         -1.25289        -0.76666        -1.33248
C          0.04134        -1.45806        -1.11705
C          1.26308        -0.77810        -1.05323
C          2.50980        -1.48011        -0.79976
C          3.72876        -0.74117        -0.65907
C          5.04044        -1.48528        -0.61350
C          6.06978        -0.74161         0.20429
C          7.28813        -1.47364         0.65180
C          8.55658        -0.73169         0.75365
C          9.77391        -1.49943         0.95060
C         11.01824        -0.75369         1.01666
C         -9.78715        -2.82921         0.51109
C         -8.57417        -3.57039         0.36341
C         -7.34610        -2.85865         0.06742
C         -6.13013        -3.56369        -0.08597
C         -4.92064        -2.85728        -0.40708
C         -3.69516        -3.56916        -0.52491
C         -2.48871        -2.85939        -0.79463
C         -1.23158        -3.56002        -0.86404
C         -0.01744        -2.87549        -0.90726
C          1.23825        -3.58228        -0.56787
C          2.52609        -2.88219        -0.66292
C          3.74066        -3.63081        -0.42218
C          4.95053        -2.94469        -0.25073
C          6.14286        -3.63240         0.16904
C          7.30104        -2.93997         0.54205
C          8.44230        -3.62966         1.23020
C          9.74047        -2.87153         1.07388
C         -8.55372        -4.95475         0.51430
C         -7.32777        -5.69605         0.46614
C         -6.09519        -4.98751         0.12635
C         -4.90313        -5.70053        -0.02736
C         -3.68146        -5.01334        -0.39331
C         -2.52021        -5.73730        -0.61572
C         -1.26896        -5.03714        -0.91546
C          0.00861        -5.82357        -0.81376
C          1.24560        -5.07265        -0.44529
C          2.52293        -5.81808        -0.45841
C          3.73829        -5.07836        -0.35914
C          4.97227        -5.76538        -0.14511
C          6.13858        -5.07428         0.20509
C          7.36244        -5.78871         0.54830
C          8.49144        -5.09933         0.93347
C         -7.30154        -7.04142         0.76758
C         -6.00675        -7.77645         0.94661
C         -4.85615        -7.12673         0.20959
C         -3.73500        -7.86699        -0.08987
C         -2.53472        -7.24211        -0.75433
C         -1.24088        -7.92388        -0.33692
C         -0.02247        -7.25169        -0.42668
C          1.21728        -7.91983        -0.21707
C          2.46192        -7.21576        -0.36010
C          3.70563        -7.99725        -0.38166
C          5.02213        -7.23152        -0.27720
C          6.21321        -7.95120         0.22025
C          7.34110        -7.23817         0.54940
C         -6.09352        -9.25720         0.66999
C         -4.98622        -9.96549         0.36921
C         -3.70927        -9.30079         0.13491
C         -2.51665        -9.99334         0.12821
C         -1.25090        -9.31116        -0.00689
C         -0.02950        -9.98304         0.19329
C          1.20845        -9.31975         0.07606
C          2.45565       -10.01847         0.26600
C          3.67313        -9.40547         0.05931
C          4.93759       -10.06565         0.28040
C          6.12470        -9.38759         0.34664
O         -5.77940         1.23708        -1.89825
O          1.08122        -4.26718         0.77255
O          6.20088        -1.05884         1.62279
O          7.79848         5.75810        -1.85260
H          7.03252         6.23164        -2.24298
O         -3.36347         3.84402         1.51351
O         -0.54745        -5.56180        -2.14278
O         -4.99389         5.68293         2.24988
H         -4.59860         4.84120         2.57979
O         -1.41578         0.00034        -2.57251
O          0.83076         1.24843        -2.48863
O          5.58457        -1.44777        -1.98374
H          4.91783        -1.84717        -2.58192
O         -2.65464        -7.49426        -2.19840
H         -1.92803        -6.97865        -2.62456
O          4.53859        -7.74092        -1.56447
O          8.12619        -3.54009         2.68602
H          7.72718        -2.65544         2.84162
O         -5.68705        -7.66800         2.38858
H         -4.85166        -8.16196         2.53329
H         11.95273        -1.31402         1.16740
H         11.99014         1.14827         1.02403
H         10.80701         3.28829         0.73932
H          9.66433         5.42257         0.30705
H          8.40624         7.64553         0.22510
H          7.16430         9.74037         0.48913
H          5.02693        10.97683         0.47036
H          2.56758        10.99089         0.27703
H          0.08737        11.00436         0.14583
H         -2.39609        11.00403         0.08650
H         -4.86202        11.00806         0.12434
H         -7.00447         9.78012         0.28282
H         -8.23674         7.64364         0.49119
H         -9.50584         5.51886         0.48994
H        -10.75809         3.36983         0.59160
H        -11.98252         1.21459         0.79996
H        -11.95426        -1.25728         0.82601
H        -10.71628        -3.37484         0.73425
H         -9.48735        -5.49034         0.74236
H         -8.23507        -7.55597         1.04251
H         -7.05218        -9.76662         0.85015
H         -5.02473       -11.06164         0.27649
H         -2.51311       -11.07867         0.30958
H         -0.04129       -11.05730         0.43143
H          2.42253       -11.07304         0.57964
H          4.92563       -11.15115         0.46022
H          7.04843        -9.93920         0.57749
H          8.24082        -7.76953         0.89600
H          9.40157        -5.65650         1.20417
H         10.68284        -3.41694         1.23900
