         300
 CSIRO Nanostructure Databank - Neutral Graphene Oxide Data Set
C         30.34779        31.58209        -1.01483
C         30.40567        32.71452        -1.51658
C         30.59568        36.07064        -2.13184
C         30.58915        37.30000        -2.03456
C         30.46910        40.46507        -1.43475
C         30.28181        41.68087        -1.14904
C         32.60569        28.94986         0.43876
C         31.51415        29.43242        -0.00015
C         32.67381        31.42354        -0.62173
C         31.43778        30.75605        -0.54515
C         32.67135        32.95737        -0.69857
C         31.57760        33.59891        -1.63485
C         32.80513        35.86493        -1.20775
C         31.64073        35.07971        -1.84514
C         32.92216        37.39173        -1.34290
C         31.69716        38.22826        -1.78967
C         32.67240        40.30919        -0.59836
C         31.58468        39.62116        -1.38780
C         32.65342        41.84980        -0.58754
C         31.13231        42.41531        -0.14590
C         32.44176        44.45096         0.14386
C         31.39911        43.88972        -0.20866
C         35.35452        27.29690         0.98096
C         35.14788        28.70815         0.72748
C         33.92794        29.37231         0.43310
C         35.25285        31.43849        -0.31346
C         33.96618        30.62420        -0.53322
C         35.15410        32.96030        -0.07739
C         34.07638        33.56728        -1.02062
C         35.35843        35.90859        -0.92873
C         34.04296        35.10009        -0.81964
C         35.23004        37.29695        -0.21375
C         33.95990        38.05085        -0.45562
C         35.15528        40.25496         0.42160
C         33.88501        39.53399        -0.14985
C         35.15328        41.74726        -0.03387
C         33.76411        42.40830         0.36265
C         35.07796        44.69967         0.49172
C         33.79329        43.96966         0.43034
C         35.37473        46.12982         0.36062
C         37.68245        27.01730         0.24807
C         36.39319        26.62944         0.94993
C         37.68604        28.58863         0.37099
C         36.40065        29.32367         0.56316
C         37.64465        31.52785         0.79827
C         36.48248        30.75542         0.19520
C         37.58819        33.07771         0.77279
C         36.56230        33.58186        -0.30025
C         37.83170        35.92428        -0.04047
C         36.62743        35.12709        -0.47068
C         37.73089        37.44666        -0.27115
C         36.46696        38.06059         0.31076
C         37.63022        40.33275        -0.06187
C         36.47400        39.58056         0.05701
C         37.61399        41.77185         0.22683
C         36.42865        42.45843         0.40243
C         37.61443        44.63943         0.92128
C         36.42710        43.97238         0.16269
C         37.61520        46.14650         1.23338
C         36.38843        46.75573         0.69165
C         40.25073        24.25190         0.80046
C         39.23890        25.08426         0.73785
C         40.11316        27.15918         1.43282
C         38.92682        26.37786         0.78523
C         40.30868        28.50183         0.64063
C         38.99495        29.33144         0.56832
C         40.20318        31.58352         1.20903
C         38.92247        30.77688         1.08200
C         40.14533        33.13538         1.16509
C         38.92488        33.78095         0.56350
C         40.22933        36.02250         0.81862
C         38.85828        35.29060         0.89723
C         40.21940        37.48516         0.47790
C         38.92758        38.30492         0.25630
C         40.35208        40.40547        -0.51359
C         38.93586        39.65480        -0.57215
C         40.22641        41.89094        -0.16675
C         38.90964        42.54572         0.16136
C         40.19025        44.69800         0.90624
C         38.91216        43.90478         0.82928
C         40.19788        46.07720         1.50297
C         38.90587        46.84140         1.60505
C         40.33325        48.80688         1.56878
C         39.20613        48.27580         1.58000
C         42.81979        24.38474         0.97834
C         41.46628        24.82207         1.04045
C         42.78363        27.07484         1.44572
C         41.46525        26.32696         1.44978
C         42.81154        28.59960         1.32316
C         41.49544        29.31610         1.17752
C         42.61453        31.43132         0.21377
C         41.49240        30.83541         1.04858
C         42.65392        32.99118         0.21696
C         41.41078        33.76937         0.53922
C         42.75846        35.92049         0.18378
C         41.57679        35.24283         0.89836
C         42.77075        37.44923         0.28492
C         41.43400        38.13042        -0.14185
C         42.77672        40.33983         0.29721
C         41.40182        39.64292         0.33304
C         42.81409        41.82355         0.30012
C         41.58727        42.62516        -0.10295
C         42.74631        44.53848         1.23699
C         41.49522        43.99842         0.59285
C         42.62184        45.90777         1.81586
C         41.42817        46.73574         1.51824
C         42.94539        48.57851         1.43226
C         41.61714        48.18313         1.53168
C         43.92499        24.94275         1.04436
C         45.36563        27.16193         1.16360
C         44.13061        26.36353         1.36040
C         45.27171        28.63879         0.82946
C         44.07405        29.30084         0.88411
C         45.25619        31.53647         0.31418
C         43.98841        30.73454         0.39302
C         45.27086        33.03161         0.48159
C         43.94887        33.76529         0.41947
C         45.26607        35.99843         0.28388
C         43.93944        35.23586         0.12502
C         45.27025        37.37669        -0.40303
C         43.94202        38.13539        -0.49376
C         45.30558        40.32931        -0.15881
C         44.05591        39.57030         0.03478
C         45.29467        41.74222         0.26662
C         44.01417        42.47716         0.40109
C         45.38755        44.68750         0.75883
C         44.08499        43.88545         0.95182
C         45.68756        46.14721         1.18950
C         45.03100        47.30191         1.91333
C         44.13743        48.17166         1.22751
C         47.64543        27.22328         0.23965
C         46.63773        26.65160         0.64422
C         47.76793        28.65752        -0.18383
C         46.56533        29.35495         0.52447
C         47.66571        31.55778        -0.38611
C         46.58340        30.84235         0.44385
C         47.80926        32.99675         0.11591
C         46.54671        33.74686         0.29873
C         47.83829        35.93519        -0.12341
C         46.52743        35.18285        -0.02057
C         47.81256        37.45058         0.01847
C         46.54624        38.15774        -0.38886
C         47.73393        40.39060        -0.41014
C         46.53802        39.65913        -0.33110
C         47.63538        41.84045        -0.86489
C         46.49392        42.57048        -0.13163
C         47.44642        44.78141        -1.00724
C         46.17426        44.05249        -0.45115
C         47.34377        46.19490        -0.65168
C         46.72826        46.69613         0.28648
C         50.33484        28.74580        -0.45355
C         49.08246        29.36052         0.18705
C         50.27477        31.52468        -0.80680
C         49.01522        30.78938        -0.44079
C         50.22366        33.06644        -0.93288
C         49.12470        33.71523        -0.03022
C         50.31608        36.01416        -0.44736
C         49.17503        35.25710         0.26327
C         50.41203        37.51910        -0.18638
C         49.08874        38.24120        -0.05339
C         50.29732        40.48940        -0.71371
C         49.05235        39.73798        -0.30001
C         50.21229        41.94414        -1.09570
C         48.93258        42.66164        -0.65956
C         50.06984        44.67528        -1.41578
C         48.73392        44.08485        -1.26481
C         51.39142        29.44218        -0.47030
C         52.68927        31.69166        -0.85766
C         51.62687        30.80218        -0.69904
C         52.67866        32.92665        -1.15018
C         51.57708        33.78580        -0.55616
C         52.67750        36.12904        -1.04914
C         51.50784        35.23838        -0.96490
C         52.63687        37.36068        -1.18117
C         51.64765        38.29702        -0.60926
C         52.64604        40.59626        -1.28460
C         51.47313        39.64317        -1.27577
C         52.52538        41.81001        -1.50479
C         51.37327        42.66184        -1.36761
C         51.15021        44.07920        -1.51731
O         47.21742        35.43173        -1.31992
O         42.06387        29.07430         2.49110
O         44.66560        30.98261        -0.90588
O         48.82587        33.01693         1.20758
O         43.42845        46.24960         2.69947
O         41.77010        33.49815        -0.83537
O         47.78511        44.32480        -2.32702
O         32.85126        37.94285        -2.66588
O         46.94887        30.20331         1.67313
O         43.46184        43.76090         2.25775
O         50.45038        35.67549        -1.85265
O         37.79593        35.32202        -1.35696
O         38.73051        39.50065        -2.02612
O         48.42055        37.94341         1.22546
O         32.73821        39.73604         0.75050
O         36.27114        30.95703        -1.23887
O         49.99154        40.36008         0.69769
O         40.88841        44.89306        -0.38720
O         40.31906        37.06354         1.85230
O         38.41360        29.20556        -0.75933
O         34.20046        37.35671         0.80018
O         49.47851        30.82835        -1.82373
O         44.53762        33.43858         1.71669
O         41.10523        31.32140         2.34915
O         37.93649        46.40215         2.60258
O         33.05899        35.47081         0.16318
O         44.96690        26.74266         2.48254
O         37.94615        31.00418         2.13345
O         36.59938        44.03639        -1.21619
O         43.61269        39.80395         1.38830
O         46.02717        37.57066        -1.63963
O         42.97687        37.63285         1.67618
O         38.12370        43.88651         2.05256
O         46.34614        42.16427         1.23097
O         34.39813        44.34719         1.71558
O         39.42341        42.57385        -1.21019
O         31.98896        34.13875        -2.88699
O         51.39327        38.03250         0.77472
O         42.14668        26.60093         2.69246
O         46.18005        45.02155         1.92442
O         33.38067        42.02565         1.69710
H         33.83937        42.64472         2.31699
O         38.62163        38.82271         1.55746
H         38.87052        38.14033         2.22570
O         40.11571        33.54519         2.56295
H         40.90445        33.16002         3.01085
O         30.75219        42.00816         1.11615
H         31.54907        42.00092         1.70500
O         32.18444        33.28172         0.61355
H         32.94636        33.34521         1.24127
O         41.02656        39.67797         1.70597
H         41.64291        39.06065         2.17772
O         45.34900        36.29757         1.69308
H         44.50842        36.78606         1.94666
O         35.26476        41.76591        -1.47599
H         35.81525        42.58616        -1.70333
O         40.95941        40.44028        -1.82120
H         40.29061        40.11247        -2.47343
O         34.05667        29.99104        -1.82731
H         34.99725        30.06533        -2.12494
O         49.92523        33.34035        -2.29223
H         49.36538        32.60658        -2.63803
O         51.69405        33.73330         0.85786
H         52.45278        34.28046         1.15048
O         47.55812        28.78797        -1.58439
H         48.37968        28.51548        -2.04978
O         41.93957        42.92978        -1.47402
H         41.12705        43.27944        -1.90874
O         41.15030        37.95764        -1.53709
H         41.91048        38.29276        -2.07153
O         47.35455        41.80729        -2.28105
H         46.66943        41.12875        -2.45691
O         40.69863        28.13508        -0.69118
H         39.93084        28.30647        -1.29146
O         37.09412        33.44505         2.08195
H         37.76625        33.14955         2.73799
O         45.22173        44.06153        -1.52515
H         45.70964        43.92547        -2.36921
O         36.45722        37.82962         1.72398
H         35.87618        38.51525         2.13597
O         34.68234        33.14571         1.26336
H         35.43908        33.31112         1.88663
O         38.37058        35.52929         2.22558
H         39.04522        35.16798         2.84600
O         47.15728        31.65300        -1.72205
H         47.08020        30.74053        -2.08753
O         39.75352        27.46364         2.76300
H         40.57882        27.43510         3.30998
O         49.06709        42.91908         0.74565
H         49.34954        42.07909         1.18754
O         43.64347        38.24914        -1.89823
H         44.47978        38.06066        -2.39276
O         37.96005        40.63808        -2.50275
H         38.52137        41.43128        -2.25689
O         51.11911        39.35899        -2.62847
H         51.80070        38.77026        -3.01983
O         49.29343        29.44168         1.56781
H         49.06733        28.58802         1.99198
O         36.98641        33.09127        -1.58285
H         37.76007        33.63618        -1.86477
O         49.39308        35.44354         1.65669
H         49.07224        34.64037         2.13064
O         35.07610        40.15671         1.85409
H         34.12185        40.19204         2.10488
O         42.16778        31.02855        -1.10130
H         42.87760        31.25280        -1.74458
O         37.58628        26.67138        -1.11747
H         36.75344        27.02833        -1.48906
O         37.56047        37.58999        -1.68802
H         38.37420        37.28636        -2.14423
O         45.71337        47.71012         2.96012
H         45.34829        48.53932         3.33006
O         41.99262        35.26530         2.27306
H         42.26784        36.21150         2.45143
O         32.80051        42.33142        -1.90854
H         33.73680        42.17124        -2.19697
O         35.45484        36.14195        -2.33903
H         36.29662        36.64365        -2.49362
O         34.38604        33.21555        -2.36114
H         35.36674        33.26159        -2.48572
