         278
 CSIRO Nanostructure Databank - Neutral Graphene Oxide Data Set
C        -10.95519         0.03474         0.59967
C         -9.62966         0.75006         0.55257
C         -8.78596         0.32121        -0.68086
C         -7.64433         1.28348        -1.09142
C         -6.37846         0.52541        -1.53928
C         -5.02296         1.25860        -1.49560
C         -3.70505         0.53699        -1.72146
C         -2.38035         1.27452        -1.50108
C         -1.06255         0.48380        -1.68801
C          0.18543         1.32786        -1.19278
C          1.30218         0.69991        -0.40776
C          2.53347         1.52826         0.00957
C          3.87011         0.75541         0.23837
C          5.01570         1.32971        -0.60343
C          6.32645         0.58261        -0.28322
C          7.58191         1.35906        -0.04597
C          8.88607         0.65825         0.23809
C         10.05117         1.31973        -0.52373
C         10.26486         0.50742        -1.78645
C         -9.74169         2.25104         0.57665
C         -8.61377         3.04009         0.45281
C         -7.32114         2.30298         0.03930
C         -6.25219         3.29830        -0.40514
C         -5.01813         2.68394        -0.98228
C         -3.71869         3.22527        -0.45871
C         -2.40965         2.67807        -0.95922
C         -1.17284         3.26698        -0.28252
C          0.11889         2.79837        -0.89999
C          1.35244         3.58004        -0.58654
C          2.63192         2.87951        -0.64046
C          3.84633         3.55943        -0.71602
C          5.09987         2.85364        -0.50539
C          6.29174         3.52235        -0.36206
C          7.53099         2.85380         0.20004
C          8.79272         3.53686        -0.28562
C          9.86192         2.81762        -0.70563
C         -8.60900         4.42311         0.75012
C         -7.45172         5.26072         0.64929
C         -6.19553         4.62394         0.27670
C         -5.00263         5.26368         0.47436
C         -3.74053         4.52343         0.28855
C         -2.46303         5.26911         0.54676
C         -1.25255         4.78525        -0.18926
C         -0.02843         5.63719        -0.32315
C          1.27819         4.94131        -0.45513
C          2.50599         5.75031        -0.59617
C          3.81288         5.03189        -0.81985
C          5.09851         5.77695        -0.62688
C          6.36607         4.99800        -0.49047
C          7.62592         5.70964        -0.13132
C          8.78495         5.00036        -0.19019
C         -7.46071         6.60669         1.02214
C         -6.26075         7.44131         0.90847
C         -4.93708         6.71438         0.73152
C         -3.72770         7.38800         1.42059
C         -2.43354         6.60899         1.19753
C         -1.02824         7.19647         1.35935
C         -0.08282         7.11773         0.13508
C          1.26104         7.72263         0.55244
C          2.53422         7.08609         0.08244
C          3.77400         7.87581         0.03566
C          5.08804         7.13869         0.06084
C          6.30414         7.95935        -0.38043
C          7.61631         7.22344         0.05764
C         -6.14876         8.82221         1.45780
C         -4.98662         9.50395         1.43863
C         -3.65566         8.89678         0.98710
C         -2.46606         9.62712         1.60935
C         -1.24732         9.71059         1.08937
C         -0.03131         9.97323         0.62981
C          1.25828         9.21233         0.99531
C          2.52653         9.92135         0.56164
C          3.73445         9.26061         0.31275
C          5.01805         9.97699         0.37664
C          6.20445         9.37234         0.16527
C        -11.08294        -1.23454         0.20235
C        -10.04499        -1.99342        -0.58076
C         -8.87216        -1.13151        -1.06700
C         -7.71130        -1.85223        -1.81707
C         -6.39005        -0.97634        -1.72685
C         -5.03974        -1.67655        -1.55373
C         -3.71323        -0.97902        -1.67577
C         -2.43015        -1.81540        -1.32139
C         -1.11151        -0.98663        -1.23381
C          0.06218        -1.58300        -0.53169
C          1.22665        -0.74099        -0.10414
C          2.51824        -1.47975        -0.03604
C          3.81408        -0.74497        -0.04282
C          5.06772        -1.47317         0.31619
C          6.26986        -0.84530         0.17951
C          7.49999        -1.44904         0.85412
C          8.86430        -0.82873         0.39518
C          9.99983        -1.58131        -0.40665
C         10.20038        -0.83125        -1.72983
C         -9.66893        -3.35773        -0.03292
C         -8.54425        -3.96388        -0.47327
C         -7.54911        -3.34635        -1.42485
C         -6.09660        -3.89804        -1.22923
C         -5.15299        -2.87112        -0.59494
C         -3.86212        -3.51171         0.02109
C         -2.56237        -2.69398        -0.00551
C         -1.28784        -3.64812         0.10207
C         -0.05632        -2.77383         0.40986
C          1.23005        -3.57236         0.33851
C          2.44851        -2.92717         0.20798
C          3.69652        -3.63844         0.23890
C          4.94358        -2.93210         0.59275
C          6.21878        -3.76221         0.59968
C          7.49166        -2.99979         0.97376
C          8.65908        -3.70265        -1.07073
C          9.77480        -3.06219        -0.61102
C         -8.48320        -5.23717        -1.29521
C         -7.27661        -6.16762        -1.03242
C         -6.19208        -5.16255        -0.35448
C         -4.86367        -5.89308        -0.15065
C         -3.80062        -4.95991         0.49583
C         -2.60676        -5.67588         1.23676
C         -1.19918        -4.90328         1.11946
C         -0.01163        -5.71505         0.52737
C          1.16302        -5.00334         0.29488
C          2.39228        -5.65262        -0.19800
C          3.69396        -5.01353         0.07250
C          4.91182        -5.76214        -0.09152
C          6.15403        -5.11155        -0.00794
C          7.33993        -5.79542        -0.50643
C          8.50525        -5.14428        -0.90504
C         -7.45949        -7.21371        -0.01717
C         -6.54072        -8.27229         0.25036
C         -5.01134        -7.16095         0.66318
C         -3.80702        -7.96174         0.95473
C         -2.49788        -7.20721         0.99747
C         -1.24080        -7.92458         0.60500
C         -0.02363        -7.13948         0.27043
C          1.07298        -7.81006        -0.22864
C          2.34750        -7.11730        -0.48135
C          3.61858        -7.86587        -0.44193
C          4.83336        -7.18915        -0.36164
C          6.07732        -7.92599        -0.46276
C          7.27338        -7.23726        -0.57074
C         -5.84965        -9.14234        -0.75783
C         -4.67887        -9.74976        -0.49974
C         -3.85991        -9.48803         0.75731
C         -2.45201       -10.18324         0.72060
C         -1.28821        -9.36090         0.20519
C         -0.20481        -9.96967        -0.31984
C          1.02240        -9.21861        -0.76343
C          2.32879        -9.95781        -0.54676
C          3.54761        -9.31167        -0.49281
C          4.81026       -10.02975        -0.49457
C          6.00215        -9.37107        -0.51542
O          8.32765        -3.54266         1.67368
O         -5.56356         7.39609        -0.40522
O          5.93245         5.56851        -1.79821
O         -4.27334        -3.92105         1.36401
O         -4.34031        -1.69044        -2.81229
O          2.00976         6.90251         1.48507
O          0.38142         2.31222        -2.25655
O         -9.50115        -0.06828        -1.87752
O         -0.96746         5.44186        -1.45805
O         -4.28856        -6.33824        -1.38532
H         -4.53106        -5.69775        -2.10192
O         -2.33099         5.38762         2.00986
O         -6.46940        -0.07347        -2.85925
O          2.20587         2.19015         1.23089
O         -2.33029         2.46780        -2.37350
O         -2.55335       -11.41672         0.01465
H         -2.27007       -11.28622        -0.91292
O         -0.59431         7.90020        -0.94726
H         -0.98927         7.28782        -1.61327
O          3.25813        -1.17839        -1.31018
O         -0.07137        -1.78363        -1.94374
O          0.78633         0.18816         0.90334
O         -0.81962        -4.53623         2.39071
O         -6.79017        -6.67918        -2.25342
H         -6.82913        -5.93946        -2.90612
O         -0.60416         7.40138         2.48202
O          9.31190         0.06702         1.48304
O         -4.74556        -7.35983         1.98744
O         -3.49328         8.98676        -0.42874
H         -4.32342         8.66504        -0.85462
O          7.47521         3.04600         1.64177
H          6.74149         2.50291         2.00216
O         -1.11582        -4.32042        -1.14775
H         -0.69705        -3.70508        -1.79831
O         -5.89108         3.50719        -1.81191
O         -3.73311         3.23104         1.01340
O          0.88830        -9.07601        -2.22429
H          1.50837        -8.36896        -2.50915
O          7.24184         0.89349        -1.40416
O         -0.92913         0.35584        -3.11262
H         -0.84149         1.26754        -3.47603
O         -3.98733         7.37031         2.83516
H         -3.59743         6.54612         3.20429
O         -6.78605         1.63691         1.13971
O         -5.54783        -4.27118        -2.50601
H         -5.31004        -3.46023        -3.01459
O         -1.62998        -7.79439         2.02265
O          7.61156        -2.99015        -1.61968
H          6.96989        -3.60892        -2.02341
O         -8.08991        -1.91230        -3.19629
H         -7.95968        -1.00974        -3.57210
O         -8.08564        -4.35824        -2.42403
O          2.27874        -6.14670        -1.60178
O         -4.40917         1.14614        -2.81853
O          5.28697         6.86284         1.48830
H          4.41194         6.75573         1.92293
O          3.06804         5.65313        -1.93790
O         -1.10220         2.73470         1.05275
H         -1.93778         2.95629         1.53221
O        -10.73913        -2.40537        -1.80125
H        -10.06301        -2.51722        -2.50894
O          8.71770         7.80949        -0.65172
H          8.85791         7.29917        -1.47586
O          6.28171         8.10014        -1.80923
H          7.13401         8.50777        -2.07197
O          5.43663        -3.53425         1.83549
O          1.38248         9.24279         2.43668
H          0.85982         8.48335         2.79608
O         -6.86681        -8.92088         1.41244
H         -6.19082        -9.61699         1.62619
O         11.25640         1.21099         0.28350
H         10.98972         1.36102         1.21773
O          4.25230         0.90153         1.61243
H          3.51147         1.42377         2.03452
O          4.69434         1.05401        -1.97836
H          5.52319         1.15764        -2.49711
O         -6.73676        -4.83544         0.91162
H         -6.21810        -4.08266         1.30062
O         -5.88374        -2.28906         0.51850
H         -5.23904        -1.93514         1.17225
O         -2.66660        -1.75287         1.06834
H         -1.81266        -1.74708         1.58887
O         11.21780        -1.49653         0.33779
H         11.45543        -0.53748         0.41967
O          7.30562        -1.06164         2.23687
H          8.01042        -1.49727         2.76451
O         -8.92534         0.27960         1.72582
H         -8.03550         0.74994         1.76285
O         -4.55640       -10.07546         1.88458
H         -4.18291        -9.69420         2.70823
O         -2.29306        -2.69348        -2.44044
H         -2.04991        -2.14867        -3.21969
O         -0.17550        -2.19955         1.72627
H         -0.27450        -2.98589         2.34985
O         -2.99738        -5.59974         2.60562
H         -2.22095        -5.17519         3.07363
O         -8.13148         2.05803        -2.18961
H         -8.49593         1.43215        -2.85410
H         10.36846        -1.42652        -2.64037
H         10.46048         1.02469        -2.73793
H         10.76128         3.35731        -1.04431
H          9.75338         5.51805        -0.10421
H          7.77448         7.43917         1.14763
H          7.13519         9.95500         0.24722
H          4.98451        11.03512         0.67812
H          2.56630        11.00510         0.75814
H          0.09001        10.86125        -0.01773
H         -2.64723        10.12263         2.58119
H         -4.97559        10.54328         1.80205
H         -7.06702         9.30643         1.82479
H         -8.37485         7.04974         1.44624
H         -9.50714         4.84863         1.22833
H        -10.73918         2.71923         0.63735
H        -11.79013         0.53902         1.11065
H        -12.04719        -1.75216         0.32098
H        -10.50669        -3.98375         0.31539
H         -9.43417        -5.78159        -1.49575
H         -8.09228        -6.94014         0.84261
H         -6.36169        -9.31649        -1.71623
H         -4.25704       -10.43927        -1.24663
H         -2.21975       -10.43684         1.79066
H         -0.22590       -11.05566        -0.50448
H          2.31040       -11.05696        -0.61302
H          4.78472       -11.12898        -0.52162
H          6.94379        -9.93824        -0.55871
H          8.20550        -7.79175        -0.75767
H          9.40373        -5.76175        -1.06302
H         10.54243        -3.69951        -0.15034
