         480
 CSIRO Nanostructure Databank - Neutral Graphene Oxide Data Set
C         37.94127        49.76983        -1.71953
C         36.76258        50.40622        -2.06563
C         37.78366        52.55960        -1.63091
C         36.68156        51.80960        -2.01818
C         40.50152        48.46093        -1.18803
C         40.29338        49.85973        -0.91711
C         39.08330        50.51396        -1.31391
C         40.17869        52.70716        -0.90650
C         39.00131        51.93863        -1.27383
C         40.20138        54.11135        -1.04818
C         42.32547        48.43809         0.47178
C         41.52109        47.77929        -0.61405
C         42.47717        49.92434         0.20144
C         41.37505        50.60432        -0.32901
C         42.47701        52.81973        -0.03049
C         41.33891        52.05684        -0.39779
C         42.52682        54.20011        -0.32725
C         41.35653        54.83136        -0.80406
C         44.93930        45.68226         0.22512
C         43.74910        46.29083         0.44255
C         44.91163        48.49349         1.03819
C         43.63517        47.72213         0.80947
C         44.92340        49.96346         0.89980
C         43.62332        50.66333         0.76913
C         44.90583        52.95450         0.92732
C         43.60327        52.17261         0.68818
C         44.96695        54.30915         0.23903
C         43.78975        54.93396        -0.23480
C         45.07761        56.93811        -0.74550
C         43.87570        56.25285        -0.72916
C         47.48226        44.28670        -0.25890
C         47.41008        45.70868         0.06527
C         46.21101        46.35043         0.36314
C         47.47173        48.53178         0.91880
C         46.20696        47.73296         0.93011
C         47.41739        50.00445         0.88018
C         46.14500        50.70372         0.82108
C         47.42635        52.83602         0.35692
C         46.14494        52.11261         0.68247
C         47.42982        54.34011         0.76726
C         46.19034        55.00626         0.21054
C         47.53344        57.05567        -0.32724
C         46.26087        56.33195        -0.27898
C         47.59085        58.40582        -0.61576
C         49.89642        44.51192        -0.77699
C         48.64548        43.68705        -0.59316
C         49.86032        45.71055         0.11960
C         48.67857        46.38549         0.27811
C         49.97113        48.47879         0.93323
C         48.71670        47.89879         0.29447
C         50.00433        49.99688         0.79212
C         48.65073        50.71142         0.90744
C         49.89144        52.91813         1.07309
C         48.65697        52.09826         0.80894
C         49.92009        54.18109         0.25481
C         48.70516        54.99271         0.26324
C         50.05552        56.98591        -0.33510
C         48.76638        56.31446        -0.14138
C         50.03309        58.42086        -0.56041
C         48.83342        59.08487        -0.69502
C         52.47531        41.76978        -1.39774
C         51.28750        42.49576        -1.31411
C         52.42012        44.47286        -0.39807
C         51.21969        43.77983        -0.75297
C         52.42218        45.74417         0.21332
C         51.09264        46.19406         0.81670
C         52.30718        48.11514         1.71124
C         51.05741        47.66823         1.12517
C         52.31055        50.25434         1.96105
C         51.13391        50.81458         1.41138
C         52.43754        52.85941         1.02675
C         51.19042        52.15878         1.05479
C         52.49821        54.20592         0.57157
C         51.26978        54.85956         0.04898
C         52.60744        56.91688        -0.53254
C         51.26064        56.30534        -0.17462
C         52.60027        58.44490        -0.44573
C         51.30604        59.18759        -0.53263
C         52.48350        61.27485         0.04059
C         51.31503        60.60004        -0.08968
C         55.03504        40.22017        -1.27183
C         54.87862        41.57441        -0.81649
C         53.69737        42.32788        -0.96540
C         54.97031        44.47151        -0.14483
C         53.70264        43.79488        -0.67979
C         54.88873        45.78148         0.52876
C         53.63580        46.41969         0.60216
C         54.79010        48.40053         1.78968
C         53.55809        47.67431         1.34774
C         54.77794        49.93812         2.04754
C         53.58304        50.79859         1.81273
C         54.87720        52.85979         1.32218
C         53.64923        52.15624         1.35103
C         54.93414        54.21426         0.93520
C         53.73118        54.90031         0.54989
C         55.02076        56.96378         0.20622
C         53.80379        56.27917         0.15540
C         55.06374        58.41748        -0.23766
C         53.77621        59.11588         0.24485
C         54.96789        61.30849         0.02685
C         53.77482        60.61523         0.02862
C         55.03643        62.71835        -0.24989
C         57.39549        40.04319        -0.51432
C         56.17367        39.47169        -1.11193
C         57.22072        41.38841         0.09596
C         55.88328        42.08344         0.18195
C         57.13359        44.11879         0.97459
C         56.06715        43.59241         0.26466
C         57.26261        45.56450         1.19576
C         56.10647        46.36171         1.06044
C         57.30056        48.49359         1.59695
C         56.10767        47.77108         1.47163
C         57.34809        49.91986         1.83609
C         56.09346        50.66670         2.03048
C         57.38638        52.83569         1.47562
C         56.10456        52.17201         1.76103
C         57.39874        54.22465         1.22373
C         56.19153        54.92225         0.94638
C         57.47951        57.03037         0.62728
C         56.21973        56.31069         0.61871
C         57.46320        58.48129         0.46678
C         56.30093        59.14420         0.23016
C         57.51470        61.33572         0.12991
C         56.23063        60.62868         0.50457
C         57.49657        62.70853        -0.23855
C         56.22481        63.38087        -0.36151
C         60.08307        37.37665        -0.59029
C         58.89640        38.06060        -0.84484
C         59.62527        39.80418         0.68892
C         58.63167        39.26041        -0.17522
C         59.19113        40.87521         1.65808
C         58.11027        41.79776         1.19762
C         59.96042        44.30590         2.03680
C         58.04251        43.11806         1.55089
C         59.83748        45.65636         1.89022
C         58.63664        46.25780         1.14629
C         59.87136        48.53931         1.55539
C         58.59002        47.79561         1.29259
C         59.83615        49.94132         2.10981
C         58.55376        50.67142         1.78425
C         59.83167        52.77549         1.20895
C         58.57392        52.07946         1.59954
C         59.91670        54.23489         1.18024
C         58.66670        55.00424         1.49689
C         59.95018        57.07481         0.78930
C         58.67622        56.39235         0.92407
C         59.97368        58.47398         0.62138
C         58.70553        59.25504         0.86609
C         59.95495        61.28252        -0.04190
C         58.72004        60.64237         0.25838
C         59.95574        62.65944        -0.42204
C         58.72702        63.38133        -0.48483
C         59.95874        65.43272        -1.00409
C         58.77650        64.78356        -0.79177
C         62.41437        35.82184        -0.24083
C         62.32857        37.09326         0.54906
C         61.11049        37.95875         0.16551
C         62.19845        39.95102         1.27558
C         60.94963        39.25680         0.71732
C         62.34741        41.43162         1.43893
C         61.27699        42.30765         1.18822
C         62.42578        44.23297         1.97586
C         61.20917        43.58019         1.84387
C         62.39305        45.70386         1.67708
C         61.13555        46.39478         2.18517
C         62.33757        48.52801         1.98989
C         61.15754        47.84042         1.81358
C         62.34099        49.98268         1.89870
C         61.14077        50.64851         1.78414
C         62.39219        52.80074         1.33452
C         61.14730        52.03275         1.31647
C         62.36922        54.14133         0.97625
C         61.12608        54.87719         0.93398
C         62.40248        57.00977         0.59391
C         61.16944        56.33065         0.77290
C         62.42010        58.42254         0.37517
C         61.18903        59.15001         0.36608
C         62.40775        61.19833        -0.27560
C         61.18894        60.55410         0.04995
C         62.38443        62.55875        -0.70953
C         61.19436        63.31205        -0.74130
C         62.43059        65.43420        -1.17623
C         61.21788        64.74047        -1.00457
C         62.53607        66.87452        -1.21571
C         64.60652        36.38160        -1.16811
C         63.47054        35.50852        -1.02981
C         64.62498        37.58880        -0.39767
C         63.57456        37.93661         0.44063
C         64.89259        39.90823         1.43654
C         63.54396        39.21650         1.17503
C         64.83549        41.39429         1.72592
C         63.58542        42.06406         1.81746
C         64.85518        44.21563         2.05541
C         63.62969        43.49713         1.92393
C         64.83400        45.66074         2.13059
C         63.66269        46.40265         2.05573
C         64.79585        48.57182         2.24759
C         63.61734        47.83615         2.11699
C         64.78326        50.00442         2.26371
C         63.59742        50.70854         1.97676
C         64.80607        52.85866         1.77414
C         63.61137        52.12301         1.72172
C         64.87754        54.19243         1.27225
C         63.66777        54.79063         0.57092
C         64.86238        56.96422         0.47016
C         63.65798        56.29888         0.59589
C         64.91415        58.39786         0.27694
C         63.65924        59.11119         0.16199
C         64.90094        61.15990        -0.45571
C         63.65362        60.48181        -0.18524
C         64.89457        62.46008        -0.95886
C         63.62854        63.15424        -1.19596
C         64.97629        65.35559        -1.34395
C         63.66468        64.68224        -1.41662
C         65.06042        66.87027        -1.28126
C         63.71485        67.53398        -1.34763
C         66.66629        34.62828        -3.77320
C         65.62344        34.95564        -2.93983
C         66.93372        36.77746        -1.96930
C         65.71321        36.04606        -2.02196
C         67.03351        37.97555        -1.16412
C         65.78768        38.49865        -0.56309
C         67.21837        40.32073         0.52899
C         65.89315        39.69976         0.31892
C         67.29875        41.47915         1.33793
C         66.05012        42.10664         1.77754
C         67.33018        44.20641         2.30555
C         66.07841        43.51484         2.04025
C         67.34535        45.57296         2.52265
C         66.12911        46.35697         2.18550
C         67.29091        48.58791         2.75899
C         66.09214        47.85952         2.25034
C         67.33637        50.05158         2.56270
C         66.01978        50.73958         2.56530
C         67.31052        52.89901         2.11029
C         66.01991        52.25477         2.32800
C         67.33785        54.19853         1.59989
C         66.09080        54.85880         1.23702
C         67.42528        56.96350         0.62321
C         66.13221        56.20447         0.60963
C         67.48822        58.42338         0.17089
C         66.12689        59.09554         0.18424
C         67.37499        61.17581        -0.18762
C         66.14834        60.47968        -0.16980
C         67.43174        62.48899        -0.82746
C         66.13229        63.15885        -1.30809
C         67.42663        65.33268        -1.58861
C         66.13679        64.63872        -1.41920
C         67.42030        66.70182        -2.03024
C         66.07757        67.30361        -2.38819
C         67.30216        69.47562        -2.59066
C         66.13299        68.78138        -2.60922
C         68.90014        33.96153        -5.56532
C         69.00709        34.99225        -4.59592
C         67.90551        35.32817        -3.72300
C         69.29720        37.06983        -2.65488
C         68.04542        36.38258        -2.77990
C         69.50556        37.98201        -1.46422
C         68.23659        38.63322        -0.97577
C         69.60328        40.47973         0.02769
C         68.34860        39.81927        -0.14601
C         69.70463        41.58610         0.91276
C         68.54435        42.11782         1.53180
C         69.90383        44.10696         2.51683
C         68.58094        43.39150         2.31474
C         69.90686        45.59356         2.80054
C         68.57208        46.31381         2.89382
C         69.82958        48.57666         2.74116
C         68.56865        47.82618         2.92982
C         69.79939        49.99499         2.65529
C         68.53005        50.72316         2.60596
C         69.81931        52.88548         2.26090
C         68.53487        52.24261         2.71197
C         69.80730        54.27190         1.91358
C         68.58829        54.90034         1.53735
C         69.77616        57.18766         1.70592
C         68.54654        56.37049         1.41079
C         69.76663        58.72429         1.57880
C         68.57355        59.28319         0.80048
C         69.76984        61.46743         0.65341
C         68.55521        60.61411         0.44867
C         69.80175        62.86471         0.08427
C         68.57297        63.40734        -0.55585
C         69.93922        65.30247        -1.63723
C         68.61467        64.68970        -1.29408
C         69.88711        66.81771        -1.72392
C         68.61487        67.46804        -2.00728
C         69.77955        69.69425        -2.21436
C         68.56013        68.86178        -2.28387
C         69.85874        70.97649        -2.92748
C         71.15768        34.38046        -6.31728
C         69.95356        33.65944        -6.40994
C         71.29146        35.38909        -5.37857
C         70.23084        35.71843        -4.49710
C         71.60182        37.49815        -3.35438
C         70.36862        36.75262        -3.49128
C         71.72051        38.55448        -2.49546
C         70.65641        38.94879        -1.61676
C         71.93831        40.87474        -0.73403
C         70.73890        40.06669        -0.78849
C         72.09977        41.85623         0.18219
C         71.04166        42.19200         1.14663
C         72.29787        44.39410         1.74263
C         71.16373        43.49429         1.96659
C         72.23354        45.75149         1.95655
C         71.08811        46.41604         2.46240
C         72.25215        48.61270         2.52769
C         71.05408        47.85464         2.59120
C         72.23275        49.99606         2.53536
C         71.02305        50.72345         2.54572
C         72.24063        52.90298         2.20395
C         71.02719        52.17690         2.35677
C         72.24389        54.27434         2.00886
C         71.04351        55.00004         1.84707
C         72.17146        57.10399         1.16560
C         71.05419        56.43580         1.62506
C         72.17122        58.51008         0.88689
C         71.07026        59.29916         1.05290
C         72.32095        61.49887         0.52177
C         71.09124        60.77426         0.90520
C         72.31210        62.78270         0.08262
C         71.10287        63.52144        -0.22275
C         72.33642        65.52264        -0.98933
C         71.12830        64.75390        -0.86044
C         72.31756        66.81380        -1.43707
C         71.08563        67.50817        -1.72907
C         72.33524        69.64519        -2.41352
C         71.11985        68.98099        -1.92454
C         72.29916        70.91352        -2.90152
C         71.05270        71.58489        -3.15598
O         67.03630        62.47741        -2.23398
O         48.69318        48.19307        -1.09462
O         56.10637        51.63744         3.13487
O         68.82078        56.86968         2.78162
O         57.81789        41.31745        -1.22378
O         68.84560        63.68784         0.86858
O         50.60374        54.06967        -1.01605
O         67.06442        56.14292        -0.53997
O         66.36798        47.19549         0.95808
O         67.75586        48.23881         4.10067
O         44.06444        48.01875         2.17888
O         65.86317        51.68069         3.68822
O         47.03390        47.87726         2.15031
O         69.28259        45.85537         4.09129
O         43.18483        51.51544         1.94497
O         59.34153        48.44184         0.19320
O         62.75810        39.21217         2.42215
O         58.90233        43.53978         2.53194
O         70.40381        69.71382        -0.88373
O         54.62579        44.50205        -1.57732
O         60.43465        52.15008         0.01568
O         69.30227        43.32871         3.58503
O         54.72416        48.97240         3.13621
O         65.37648        39.84887        -1.03850
O         63.54660        63.74409        -2.53670
O         71.50081        42.20258         2.54205
O         70.34192        61.45340         1.98461
O         52.20756        59.03036        -1.71456
O         59.73226        40.98112         2.75305
O         52.17395        49.08252         2.70953
O         62.09863        36.68589         1.92171
H         62.16498        37.49979         2.48103
O         70.22294        64.84361        -3.02405
H         69.42876        65.04183        -3.56535
O         50.32939        50.13796        -0.62954
H         49.75158        49.46182        -1.11514
O         49.82659        45.06533        -2.14695
H         49.37269        45.93865        -2.09220
O         65.58811        66.69188        -3.61576
H         66.17417        66.96807        -4.35027
O         56.13152        60.70675         1.99564
H         56.08283        61.66008         2.22774
O         63.83925        54.44605        -0.85002
H         63.61005        53.49871        -0.96006
O         61.24178        46.37404         3.64489
H         60.56239        46.97537         4.01731
O         58.68459        55.18886         2.96780
H         57.94355        55.78929         3.19868
O         52.79391        56.55922        -1.93207
H         52.48271        57.33517        -2.45900
O         55.34296        41.68832         1.49230
H         54.43486        42.04920         1.57497
O         69.91233        37.07447        -0.36614
H         70.76065        36.66072        -0.63401
O         62.32788        45.76219         0.21628
H         63.20447        45.50606        -0.14111
O         59.82635        49.77472         3.56708
H         59.61403        50.63963         3.97811
O         58.63151        59.44809         2.31691
H         57.76713        59.89863         2.49245
O         69.65472        59.22920         2.93397
H         69.07504        58.60652         3.42941
O         51.08016        45.49013         2.11888
H         51.63917        46.00350         2.74176
O         49.80082        53.37174         2.46500
H         49.51095        52.62008         3.02332
O         44.94691        53.26886         2.36371
H         44.42112        52.55392         2.80647
O         68.45165        52.52215         4.15407
H         67.56672        52.19357         4.44934
O         41.51325        48.37243         1.68815
H         42.13435        48.54169         2.43545
O         65.66714        67.26265        -0.02482
H         65.03411        67.07871         0.69949
O         55.05321        58.47447        -1.68661
H         55.70591        57.82854        -2.02703
O         53.64659        58.87687         1.66768
H         54.38596        59.35109         2.11289
O         59.01682        45.97800        -0.23781
H         59.45391        46.79693        -0.58315
O         67.89387        58.39889        -1.23750
H         67.42536        57.63392        -1.64907
O         47.40583        54.45274         2.20358
H         46.52634        54.11987         2.51627
O         65.45728        39.23684         2.58947
H         64.77662        39.25714         3.29748
O         47.52203        52.87657        -1.11553
H         47.84826        52.00475        -1.42787
O         60.46514        42.09030         0.12850
H         59.87489        42.85580        -0.03124
H         37.98197        48.67239        -1.73378
H         35.88580        49.81659        -2.36664
H         37.68873        53.65299        -1.59406
H         35.74221        52.31340        -2.28454
H         39.84924        47.95283        -1.91243
H         39.31449        54.64783        -1.40911
H         41.67843        46.72213        -0.86514
H         41.34009        55.91402        -0.97953
H         44.93049        44.62491        -0.07305
H         42.82564        45.70218         0.35257
H         45.09529        57.95841        -1.15024
H         42.98543        56.75987        -1.12122
H         46.57264        43.67295        -0.18853
H         46.67502        58.99305        -0.76277
H         48.65185        42.61115        -0.82327
H         48.82139        60.16824        -0.87843
H         52.43861        40.72617        -1.73886
H         50.36335        42.01413        -1.66087
H         52.45074        62.35179         0.26432
H         50.36157        61.12882         0.04948
H         54.19381        39.75795        -1.80991
H         54.10347        63.26673        -0.44149
H         56.18582        38.43307        -1.47331
H         56.20370        64.44970        -0.61021
H         60.23494        36.38642        -1.04095
H         58.15368        37.62890        -1.52956
H         59.93679        66.50834        -1.22408
H         57.84534        65.36293        -0.84093
H         61.61555        35.08204        -0.08757
H         61.61257        67.46954        -1.16391
H         63.47716        34.53507        -1.53920
H         63.70413        68.63415        -1.36900
H         66.53022        33.80078        -4.48162
H         64.68973        34.38394        -3.01916
H         67.27493        70.55774        -2.78189
H         65.19542        69.29958        -2.85769
H         67.96830        33.38842        -5.65948
H         68.93605        71.44520        -3.29791
H         71.99271        34.14210        -6.99039
H         69.84950        32.85881        -7.15508
H         72.24235        35.93547        -5.32855
H         72.45573        37.25318        -3.99868
H         72.65652        39.12912        -2.50976
H         72.77098        40.65059        -1.41342
H         73.06222        42.38090         0.24701
H         73.25313        43.95703         1.42400
H         73.13063        46.34169         1.72478
H         73.22422        48.10373         2.50052
H         73.19425        50.52399         2.49909
H         73.20758        52.39186         2.29588
H         73.20780        54.80078         1.97825
H         73.10801        56.55579         0.99529
H         73.11799        58.95354         0.54520
H         73.28668        60.98720         0.64475
H         73.27853        63.25069        -0.15036
H         73.28838        65.10889        -0.62928
H         73.26029        67.37698        -1.45691
H         73.28828        69.09772        -2.40309
H         73.22938        71.40189        -3.22459
H         71.08030        72.56236        -3.65803
