         279
 CSIRO Nanostructure Databank - Neutral Graphene Oxide Data Set
C        -11.06388         0.78175         0.33933
C        -10.02331         1.50121         1.10937
C         -8.79541         0.75358         1.57530
C         -7.48744         1.50934         1.73782
C         -6.18837         0.73877         1.76884
C         -4.95389         1.45799         1.26581
C         -3.70080         0.63932         1.12069
C         -2.60944         1.13073         0.20895
C         -1.30661         0.37824         0.16135
C         -0.02522         1.15303         0.06852
C          1.12323         0.61277         0.93040
C          2.45428         1.37037         0.64659
C          3.62588         0.71503         1.38245
C          4.85677         1.54598         1.81856
C          6.23244         0.82766         1.62819
C          7.50981         1.59188         1.40510
C          8.79552         0.83680         1.21549
C          9.97942         1.51902         0.73017
C         11.18002         0.80218         0.29799
C         -9.92444         2.94863         0.87479
C         -8.75238         3.65685         0.99625
C         -7.44491         3.02968         1.43294
C         -6.30210         3.44870         0.52123
C         -5.12623         2.74299         0.49165
C         -3.95066         3.27170        -0.26564
C         -2.64153         2.52485        -0.31353
C         -1.36856         3.31355        -0.43281
C         -0.06122         2.62352        -0.15848
C          1.12693         3.42896         0.27073
C          2.27264         2.87929         0.78326
C          3.50364         3.70630         1.03315
C          4.83544         3.02688         1.32879
C          6.09099         3.64814         0.76452
C          7.46647         3.10680         1.18108
C          8.60600         3.56742         0.29773
C          9.83825         2.82696         0.27979
C         -8.74886         5.05429         0.72479
C         -7.56225         5.71745         0.32711
C         -6.41360         4.82535        -0.04901
C         -5.17062         5.51506        -0.52725
C         -3.94532         4.68972        -0.76075
C         -2.64271         5.37445        -1.18381
C         -1.39979         4.64581        -0.69368
C         -0.21037         5.54030        -0.39440
C          1.10757         4.79624        -0.31713
C          2.36819         5.56223        -0.37414
C          3.47782         5.18573         0.59743
C          4.82654         5.69764         0.10435
C          6.03804         4.83579         0.08098
C          7.22891         5.44123        -0.54281
C          8.48459         4.73052        -0.41994
C         -7.52329         7.07543         0.05729
C         -6.30683         7.74675        -0.54412
C         -5.06491         6.95488        -0.05380
C         -3.73132         7.62500        -0.36495
C         -2.59193         6.86092        -0.87821
C         -1.44214         7.54360        -1.20046
C         -0.14764         6.77940        -1.32390
C          1.01560         7.75697        -0.78413
C          2.33096         7.01183        -0.71726
C          3.49687         7.66020        -0.89483
C          4.79543         6.96730        -0.67040
C          5.87075         7.24968        -1.68873
C          7.16980         6.59638        -1.28580
C         -6.16992         9.22747        -0.25273
C         -4.99443         9.86590        -0.36165
C         -3.69721         9.14581        -0.51502
C         -2.56419         9.71430        -1.25615
C         -1.43673         8.96546        -1.46656
C         -0.23772         9.48407        -2.24163
C          1.08717         8.97525        -1.69908
C          2.27218         9.57430        -1.93116
C          3.53298         9.14148        -1.18627
C          4.83952         9.54069        -1.84308
C          5.90447         8.73596        -1.99292
C        -11.01640        -0.53804         0.08786
C         -9.95096        -1.40816         0.63707
C         -8.78146        -0.74544         1.32508
C         -7.48999        -1.50314         1.52679
C         -6.19301        -0.80259         1.83425
C         -4.86753        -1.62981         2.00158
C         -3.61476        -0.80321         1.61079
C         -2.35801        -1.59461         1.41426
C         -1.25215        -1.05077         0.55596
C          0.09011        -1.77253         0.51025
C          1.25264        -0.86686         0.74796
C          2.57081        -1.49922         0.48285
C          3.72314        -0.75819         1.14620
C          5.08665        -1.38614         0.87702
C          6.25086        -0.72384         1.62728
C          7.58003        -1.30443         1.04262
C          8.75678        -0.49598         1.55670
C         10.44403        -1.55099         0.62325
C         11.36431        -0.54058         0.12325
C         -9.86059        -2.82774         0.08084
C         -8.44985        -3.39541         0.06875
C         -7.46178        -2.96105         1.11421
C         -6.18321        -3.74455         1.18729
C         -4.87442        -3.05033         1.35835
C         -3.71198        -3.73489         1.15676
C         -2.41555        -3.09346         1.50840
C         -1.10669        -3.83307         1.39296
C          0.18020        -2.98271         1.48881
C          1.47138        -3.70155         1.12104
C          2.59543        -2.97282         0.85610
C          3.91258        -3.65362         0.53924
C          5.10761        -2.90386         1.13568
C          6.45486        -3.64261         1.27751
C          7.67571        -2.83383         1.06755
C          8.80985        -3.45370         0.47979
C          9.99216        -2.69464         0.03139
C         -8.05819        -4.19894        -0.94303
C         -6.70461        -4.88560        -0.99051
C         -6.23119        -5.10714         0.46753
C         -4.90833        -5.88872         0.47904
C         -3.60818        -5.25707         0.99509
C         -2.31096        -5.68728         0.25250
C         -1.12757        -5.08787         0.58621
C          0.18868        -5.65881         0.18860
C          1.45708        -5.13011         0.79169
C          2.63206        -5.77282         0.51592
C          3.91853        -5.12506         0.99000
C          5.20720        -5.71330         0.43688
C          6.48755        -5.19968         1.13827
C          7.68960        -5.70041         0.32541
C          8.80352        -4.83716         0.17011
C         -6.77259        -6.16631        -1.77229
C         -6.13295        -7.43231        -1.25671
C         -4.90170        -7.09526        -0.39569
C         -3.59597        -7.57958        -0.93733
C         -2.31604        -6.86619        -0.67416
C         -1.01971        -7.62647        -1.06353
C          0.22676        -7.01975        -0.43695
C          1.37708        -7.92391         0.00533
C          2.64631        -7.10181        -0.12899
C          3.93152        -7.78295        -0.41807
C          5.22147        -7.06614        -0.15354
C          6.48429        -7.89896         0.05543
C          7.65463        -6.97658        -0.19964
C         -5.79589        -8.40964        -2.37089
C         -4.71377        -9.19943        -2.38023
C         -3.64988        -9.08751        -1.30827
C         -2.29532        -9.56898        -1.69317
C         -1.14717        -9.18691        -0.82257
C          0.18092        -9.90066        -1.24565
C          1.46585        -9.24549        -0.73637
C          2.65628        -9.86663        -0.88826
C          3.95311        -9.30219        -0.33809
C          5.23624        -9.79398        -0.98450
C          6.40052        -9.14601        -0.80255
O         -5.08182        -7.24479         1.03863
O         -1.81805        -3.77100         2.66292
O          2.71875        -1.45450        -0.97411
H          1.96146        -1.98117        -1.33638
O          4.71722         1.65178         3.24784
H          4.58644         0.74178         3.59749
O         -3.31774         8.49496         0.75161
O         -0.84794        -7.51612        -2.48804
H         -0.49311        -6.61253        -2.66379
O         -4.27985         3.59929        -1.66512
O         -5.71879        -3.97243        -1.58326
H         -5.78525        -4.04808        -2.55881
O         -7.11378         3.59710         2.80221
O          5.58660        -3.28667         2.41241
O         -3.09692        -6.64480        -1.92080
O         -6.40455         7.67871        -1.98778
H         -6.56622         6.73511        -2.23206
O          0.29678         1.65016        -1.25135
O          7.05474         1.27295         2.76779
O          3.30123        -0.25573         2.44014
O          0.21866        -2.38780        -0.81012
H         -0.29143        -1.80596        -1.43046
O          5.36731        -5.87065        -0.99719
O         -9.84799        -1.40145         2.08597
O          0.66206         8.20503         0.48493
O          3.92740        -5.26104         2.41175
H          4.87771        -5.37928         2.72374
O         -3.88307         1.55284         2.25635
O          0.13394         6.39219        -2.64939
H         -0.17223         7.11143        -3.25487
O         -4.07016        -9.77804        -0.10052
H         -4.96591        -9.45703         0.14802
O         -0.38698         8.99091        -3.59772
H          0.37757         9.31143        -4.12042
O          0.30843        -2.46084         2.80730
H         -0.43952        -2.81287         3.35082
O         -6.77219         1.26756         2.98500
O          2.84354         1.20237        -0.73720
H          2.09084         1.49949        -1.30999
O         -4.74738        -1.93212         3.39188
H         -4.94397        -1.12863         3.91683
O         -2.92884         1.38076        -1.19904
O          4.10222        -3.61211        -0.89577
H          3.70841        -4.41944        -1.29562
O         -5.15527         6.84753         1.39475
H         -4.58647         7.57322         1.75793
O         -0.51491         5.98058         0.94437
H         -0.07637         6.87730         1.09272
O          4.09801         3.74390         2.36226
O          0.51931        -5.84052        -1.25230
O         -9.82508         1.13154         2.52380
O         -7.07502        -1.26424         2.89474
O          3.18018        -7.17169        -1.50473
O         -7.20619         5.02418         2.78795
H         -6.28117         5.33995         2.61337
O          6.15804        -1.07173         3.00833
H          6.70804        -0.42476         3.50921
O          1.98829         4.72940        -1.51358
O          5.20989         6.99557         0.72870
O          6.50222        -5.80281         2.39736
O         -7.23616        -5.91413         1.09592
H         -7.44837        -5.49030         1.96624
O         -1.40121        -9.40696         0.56052
H         -2.33869        -9.69601         0.67272
O          9.90575        -1.20845         1.88488
O         -2.57827        -0.87816         2.65005
O         -7.14579        -3.77494         2.29240
H          7.16532         3.24408         3.12646
O         -6.18829         5.09682        -1.48927
O        -10.42940        -2.84219        -1.22645
H        -10.78183        -3.73522        -1.41108
O          3.47886         9.84286         0.08750
H          2.67535         9.51977         0.55603
O          7.71477         3.72748         2.46642
O         -2.59244         5.29563        -2.63270
H         -2.94464         4.41016        -2.88446
O         -7.10790        -8.12741        -0.43564
H         -7.30072        -7.52951         0.33335
O          5.26084        -1.15076        -0.53739
H          4.45793        -1.49107        -1.01753
O          0.23740        -9.99150        -2.66824
H          0.17181        -9.07380        -3.02483
O          1.15163        -8.20507         1.40307
H          1.84451        -8.83755         1.69842
O          0.71001         0.88423         2.29266
H          1.35960         0.44677         2.89133
O         -1.57375        -0.70053        -0.82292
O          6.46591        -8.31448         1.44939
H          6.53246        -7.46939         2.00673
O          7.72955        -1.00707        -0.37993
H          6.92715        -1.32726        -0.86542
O         -3.43642        -5.74764         2.34243
H         -3.86529        -6.63246         2.39429
O          3.99337        -9.62563         1.08204
H          4.88159        -9.33685         1.42548
O          3.10601         5.93593         1.77517
H          3.82057         6.59405         1.94564
O          5.43829         6.57998        -2.91783
H          6.09874         6.77359        -3.61532
H         12.24714        -0.87416        -0.44473
H         11.96196         1.45760        -0.12097
H         10.68435         3.28780        -0.25550
H          9.34869         5.10769        -0.98977
H          8.10031         6.97599        -1.73970
H          6.82633         9.14003        -2.44451
H          4.93067        10.60092        -2.13124
H          2.31567        10.50174        -2.52868
H         -0.24516        10.60895        -2.26568
H         -2.63953        10.74306        -1.63903
H         -4.95018        10.96015        -0.24319
H         -7.09418         9.80465        -0.09464
H         -8.42813         7.67628         0.23955
H         -9.70364         5.60143         0.72417
H        -10.82761         3.47476         0.52896
H        -11.86527         1.39342        -0.10233
H        -11.77787        -1.00947        -0.54955
H        -10.48550        -3.48400         0.75104
H         -8.77045        -4.41409        -1.75626
H         -7.65350        -6.30679        -2.42179
H         -6.55272        -8.51591        -3.16338
H         -4.56547        -9.92614        -3.19381
H         -2.07766        -9.72361        -2.76248
H          0.13431       -10.94756        -0.85075
H          2.69262       -10.84620        -1.39158
H          5.20580       -10.71102        -1.59361
H          7.32430        -9.53165        -1.26182
H          8.44601        -7.29270        -0.90048
H          9.74929        -5.28263        -0.17971
H         10.47444        -3.04209        -0.89444
