         276
 CSIRO Nanostructure Databank - Neutral Graphene Oxide Data Set
C        -11.07916         0.61320         0.02884
C         -9.83443         1.33574        -0.20648
C         -8.50600         0.58559        -0.27321
C         -7.51141         1.21629         0.71076
C         -6.22003         0.50674         1.15096
C         -4.96460         1.23985         0.62141
C         -3.62849         0.51376         0.58115
C         -2.44738         1.37199         0.08540
C         -1.14980         0.56521        -0.09443
C          0.10851         1.35363        -0.32273
C          1.16781         0.87542        -1.30383
C          2.46348         1.73184        -1.60618
C          3.78192         0.90143        -1.46066
C          5.09299         1.61007        -1.22437
C          6.28161         0.86104        -0.69013
C          7.59159         1.56649        -0.52464
C          8.87189         0.77865        -0.48993
C         10.16479         1.57470        -0.30739
C         11.29844         0.67640         0.14323
C         -9.79158         2.69371        -0.25593
C         -8.44864         3.39428        -0.32958
C         -7.49866         2.70042         0.65728
C         -6.25890         3.43115         1.09423
C         -4.95224         2.72627         0.81933
C         -3.64546         3.40638         1.18145
C         -2.35427         2.66098         0.93714
C         -1.02841         3.40181         0.93737
C          0.16537         2.76815         0.26559
C          1.31266         3.66070        -0.10741
C          2.46997         3.11650        -0.90264
C          3.80125         3.84148        -0.90720
C          5.10123         3.11814        -1.07541
C          6.40989         3.81783        -0.76033
C          7.68673         3.05675        -0.63467
C          8.85785         3.71761         0.01140
C          9.92657         2.80758         0.58595
C         -8.48890         4.89151        -0.10079
C         -7.47945         5.59422         0.45340
C         -6.28256         4.92283         1.04715
C         -4.96330         5.67648         1.14778
C         -3.66308         4.92017         1.34270
C         -2.33819         5.65876         1.19274
C         -1.05214         4.85097         1.46574
C          0.22234         5.67979         1.15716
C          1.47259         4.92216         0.72429
C          2.68197         5.73634         0.42841
C          3.84435         5.24680        -0.36417
C          5.13385         5.91886        -0.01729
C          6.39420         5.08376         0.12592
C          7.68003         5.88572        -0.04019
C          8.89127         5.07708         0.10279
C         -7.45233         7.11098         0.41482
C         -6.12805         7.55551        -0.24551
C         -4.93946         7.08971         0.60475
C         -3.63497         7.76445         0.33655
C         -2.33582         7.07008         0.65687
C         -1.05338         7.69832         0.14844
C          0.15644         7.16431         0.88683
C          1.29287         7.83029         0.14259
C          2.60056         7.22338         0.58272
C          3.85239         8.00964         0.76015
C          5.15995         7.26241         0.67026
C          6.42364         8.02010         0.35946
C          7.64310         7.24773        -0.03066
C         -6.04502         9.05181        -0.46630
C         -4.87361         9.66845        -0.67657
C         -3.57064         8.89747        -0.67831
C         -2.35849         9.75458        -0.40326
C         -1.15754         9.20636        -0.00261
C          0.03996         9.97303         0.08611
C          1.30595         9.34629         0.20941
C          2.49157        10.06913         0.21969
C          3.84150         9.53394         0.65596
C          5.06014        10.07122        -0.06004
C          6.24496         9.43035        -0.06752
C        -11.18661        -0.72211         0.24999
C        -10.03631        -1.63843         0.14210
C         -8.65184        -0.92412        -0.08759
C         -7.55007        -1.69274         0.63504
C         -6.18990        -1.00942         0.82957
C         -4.90382        -1.76849         0.59692
C         -3.58699        -0.99760         0.51193
C         -2.29164        -1.72977         0.06950
C         -1.34886        -0.80072        -0.71656
C         -0.15312        -1.41437        -1.36357
C          1.11938        -0.60656        -1.62277
C          2.44159        -1.37215        -1.64348
C          3.72855        -0.62160        -1.39533
C          4.94141        -1.30924        -0.78828
C          6.32155        -0.64165        -0.98088
C          7.38541        -1.32237        -0.05560
C          8.77206        -0.67643        -0.17721
C          9.88365        -1.35713         0.62141
C         11.19577        -0.62396         0.45147
C         -9.96282        -2.97719         0.69700
C         -8.82187        -3.79504         0.48847
C         -7.54719        -3.10483         0.03144
C         -6.28381        -3.92671         0.17397
C         -4.97795        -3.21901         0.13364
C         -3.82703        -3.84687        -0.59697
C         -2.50945        -3.10469        -0.62317
C         -1.39894        -3.64879        -1.50492
C         -0.09630        -2.89220        -1.62055
C          1.19627        -3.63417        -1.74907
C          2.38206        -2.84014        -1.24925
C          3.61660        -3.53792        -0.77904
C          4.91774        -2.79574        -0.59185
C          6.22381        -3.56550        -0.64255
C          7.48058        -2.81671        -0.35579
C          8.58974        -3.52101         0.36088
C          9.95756        -2.87266         0.24709
C         -8.76098        -5.17671         0.65540
C         -7.63284        -5.93863         0.16597
C         -6.61763        -5.14653        -0.65350
C         -5.45305        -5.94463        -1.30160
C         -4.06429        -5.17563        -1.33945
C         -2.74310        -5.91500        -1.45923
C         -1.42343        -5.14556        -1.64775
C         -0.12778        -5.92185        -1.65026
C          1.18885        -5.14646        -1.62108
C          2.38296        -5.79394        -0.98874
C          3.68208        -5.02840        -0.86579
C          4.92579        -5.76778        -0.50209
C          6.30650        -5.07864        -0.32000
C          7.01277        -5.31230         1.00167
C          8.30780        -4.62401         1.10321
C         -7.52380        -7.28584         0.36543
C         -6.57499        -8.13632        -0.44644
C         -5.28760        -7.40865        -0.83331
C         -3.94278        -8.04553        -0.63544
C         -2.66629        -7.26916        -0.82956
C         -1.36621        -7.99071        -0.73845
C         -0.08156        -7.37487        -1.24331
C          1.20867        -8.01858        -0.68344
C          2.20937        -7.01006        -0.08605
C          3.48293        -7.88814        -0.03335
C          4.88969        -7.18393         0.08272
C          5.31225        -7.06349         1.58944
C          6.61739        -6.32852         1.80356
C         -6.32321        -9.50654         0.13337
C         -5.12280       -10.04231         0.37880
C         -3.81698        -9.28578         0.30165
C         -2.69307       -10.09609        -0.27037
C         -1.35490        -9.52636        -0.61688
C         -0.23025        -9.84682         0.35172
C          0.93396        -9.14777         0.30749
C          2.05283        -9.54205         1.14361
C          3.27640        -8.95121         1.03776
C          4.35602        -9.30932         1.94413
C          5.33626        -8.42973         2.22361
O         -4.42290         8.09367         1.51662
O         -3.52857        -5.58348        -2.62818
O          3.42443        -8.55736        -1.33851
O          6.69525         1.25886         0.64201
O          3.02287         7.63212         1.91482
O          7.10371        -5.75390        -1.25363
O          4.57087        -5.59123        -1.88287
O         -6.48857         4.17666         2.30603
O         -4.63016        -8.22479        -1.88224
O          0.36766         6.71051         2.21251
O          2.58503        -3.09958         0.17327
O         -1.86272        -7.24059         0.41198
O         -0.10217        -7.01090        -2.63446
O         -5.48564        -1.67708         1.91803
O         -2.26935         6.81947         2.08227
O         -0.07590         0.46711         0.85667
O          1.42162         3.95096        -1.51979
O          0.56065        -3.11096        -2.92309
O          7.13888        -3.19253        -1.71223
O          2.56279         4.95777         1.67302
O          9.06842        -0.23916        -1.53044
O         -8.14496         1.98844         1.77029
O         -7.88285         0.61456        -1.52447
O         -4.39586         5.47012         2.46741
O         -2.97852         2.64316         2.23776
O         -7.37232        -4.52455        -1.77176
O         -5.42774        -4.06499         1.29368
O         -3.33711        -0.26814         1.75523
O          4.48051         6.15778        -1.30874
O         -7.52889        -3.09168        -1.44106
O          2.13273        -5.90448        -2.41715
O         -5.11355         2.12748        -0.52835
O          4.72003         1.20599        -2.56232
O          0.89062         7.45515        -1.23574
O          7.31209         3.73745        -1.88438
O          6.05152         7.60452         1.74165
O         -2.77867        -4.09512         0.41091
O         -0.62217         7.21480        -1.19480
O         -1.31773        -0.89097        -2.14014
O          0.76694         0.37665        -2.61613
O          4.44623         3.75487        -2.20412
O         -0.00318         2.70052         1.69986
O         -1.66336        -4.24833        -2.78243
O          6.36358         4.56274         1.42950
O         -9.31319        -1.57183        -1.14090
O          4.75881        -1.86514         0.53455
O          1.99461        -8.61469        -1.76452
O          3.35960        -1.12871        -2.73093
O         -6.14796         0.61173         2.57600
H         -6.80889         1.28840         2.86347
O          2.39566         2.10941        -2.97595
H          2.46190         1.30710        -3.53563
O         -7.31205        -8.35293        -1.68392
H         -7.11338        -7.59468        -2.28727
O          6.69145        -0.78797        -2.35131
H          6.05386        -0.27550        -2.90118
O          5.84693        -7.96176        -0.61323
H          6.48583        -7.32808        -1.06365
O         10.42621        -3.01960        -1.09414
H          9.70298        -2.78360        -1.71358
O         10.51827         2.09779        -1.60529
H         10.49360         1.34702        -2.23817
O          3.92261        10.06121         2.01230
H          3.49729         9.39428         2.60197
O         -3.41571         8.24503        -1.97843
H         -3.15095         8.91906        -2.63963
O         -7.55306         7.67323         1.72092
H         -6.82032         7.33729         2.27911
O         -7.89886         3.23812        -1.65661
H         -7.86320         2.25612        -1.86804
O          4.25150        -6.26316         2.21907
H          4.50656        -6.09755         3.15172
O         -5.89907        -6.09623        -2.66168
H         -5.14642        -6.46812        -3.17934
O          9.45359         2.33314         1.85074
H          9.01931         3.07067         2.32783
O         -1.55198        -2.05692         1.25807
H         -1.80694        -1.42173         1.96770
O          9.56857        -1.28086         2.02813
H          8.59405        -1.41982         2.13218
O          6.99516        -1.23816         1.32996
H          6.80698        -0.28764         1.53604
O         -1.00105       -10.06500        -1.90632
H         -0.04707        -9.90936        -2.07912
O         -2.66210         1.79282        -1.27823
H         -3.61735         2.01960        -1.41291
O          1.75648        -6.57252         1.19091
H          2.54336        -6.33899         1.74880
O         -1.06988         4.64901         2.88560
H         -1.06796         5.53600         3.30941
O         -6.03097         6.89187        -1.52394
H         -5.25412         7.26557        -2.00306
O         -3.56073        -8.81695         1.63812
H         -2.76367        -8.23264         1.62293
O         -8.05515        -1.81425         1.99327
H         -7.27866        -1.93868         2.59037
H         12.10639        -1.18675         0.71012
H         12.29892         1.13657         0.10554
H         10.88818         3.38011         0.71644
H          9.80307         5.57592         0.46925
H          8.58257         7.81812        -0.11840
H          7.11214         9.91736        -0.54082
H          4.99813        11.09715        -0.45332
H          2.41135        11.16866         0.18612
H         -0.02014        11.06964         0.01576
H         -2.42064        10.83892        -0.58848
H         -4.83857        10.75329        -0.86244
H         -6.98405         9.62556        -0.48170
H         -8.31733         7.48797        -0.18304
H         -9.32704         5.44062        -0.55953
H        -10.71918         3.28738        -0.22800
H        -11.98879         1.22866         0.11096
H        -12.16267        -1.15249         0.51908
H        -10.82449        -3.37849         1.25390
H         -9.62911        -5.72572         1.05154
H         -8.30815        -7.80430         0.93917
H         -7.22316       -10.12683         0.26455
H         -5.06370       -11.07193         0.76345
H         -2.96484       -11.00432        -0.83380
H         -0.33474       -10.70005         1.03758
H          1.88283       -10.32904         1.89373
H          4.31310       -10.28942         2.44259
H          6.14376        -8.68439         2.92597
H          7.21954        -6.61092         2.68262
H          9.08707        -5.07879         1.73593
H         10.68804        -3.38128         0.92329
