         339
 CSIRO Nanostructure Databank - Neutral Graphene Oxide Data Set
C          1.34249         3.45697         1.49844
C          0.14651         4.15365         1.77057
C          1.08124         6.24140         0.75598
C          0.01205         5.49664         1.50487
C          1.09960         7.73871         1.05018
C         -0.08819         8.51960         0.66258
C          1.10507        10.69156         0.76364
C         -0.05390         9.87491         0.51761
C          1.00062        12.08955         0.56582
C          0.05404        12.66643        -0.38043
C          0.96878        14.98643        -0.05280
C          0.13007        13.96055        -0.77198
C          1.48956        16.16159        -0.85466
C          0.69069        16.71201        -1.87357
C          1.87475        18.81979        -1.72596
C          0.90451        18.00034        -2.34365
C          1.83930        20.26092        -1.83252
C          0.98645        20.97597        -2.71497
C          1.44907        23.09066        -1.59252
C          0.86339        22.35933        -2.66071
C          1.44432        24.56606        -1.51549
C          0.36313        25.24568        -2.05776
C          1.48592        27.40396        -2.08117
C          0.33957        26.66018        -2.24120
C          1.56502        28.80498        -2.40595
C          3.76626         3.52020         0.99567
C          2.51215         4.17145         1.09705
C          3.62883         6.32287         0.68129
C          2.43134         5.57702         0.88051
C          3.63933         7.73852         0.77017
C          2.40457         8.47912         1.07646
C          3.72480        10.59737         1.31637
C          2.45334         9.96645         0.74133
C          3.81519        11.91720         1.77815
C          1.89960        13.02625         1.17597
C          3.14416        15.15978         1.24011
C          2.03330        14.35598         0.80757
C          3.55206        16.31530         0.58575
C          2.62434        16.87583        -0.39981
C          3.79701        19.03013        -0.16303
C          2.78134        18.23062        -0.80109
C          3.68229        20.41662        -0.13636
C          2.57633        20.99778        -0.86157
C          3.77216        23.49146         0.19772
C          2.16372        22.33203        -0.66714
C          3.72526        24.82611        -0.38214
C          2.62510        25.32597        -1.08555
C          3.74825        27.62287        -1.06916
C          2.77726        26.68640        -1.75747
C          3.87711        28.99041        -1.59932
C          2.71430        29.53867        -2.25205
C          6.19235         3.55662         0.47599
C          4.93963         4.22668         0.62947
C          6.01947         6.38911        -0.12817
C          4.86128         5.63463         0.45907
C          6.14116         7.80657         0.37763
C          4.95389         8.39392         1.08759
C          6.17656        10.57517         1.13332
C          4.93429         9.90040         1.09136
C          6.21134        11.95065         1.43852
C          5.03801        12.63214         1.81131
C          6.14491        14.85137         1.51043
C          5.06441        14.08337         1.91318
C          6.06163        16.29793         1.21398
C          4.85361        16.96446         0.79840
C          6.14501        19.06098         0.54470
C          4.94322        18.33786         0.43068
C          6.14351        20.49972         0.06979
C          4.82374        21.20108         0.56546
C          6.18894        23.45608         0.50835
C          4.88851        22.71259         0.29346
C          6.17213        24.89430         0.00660
C          4.99024        25.54048        -0.29761
C          6.22647        27.75481        -0.45413
C          4.97301        26.99988        -0.45145
C          6.21297        29.10064        -0.80132
C          5.03786        29.70617        -1.35199
C          8.65240         3.57640         0.03266
C          7.37805         4.27174         0.17444
C          8.52387         6.39121        -0.55870
C          7.32077         5.65472        -0.04105
C          8.53732         7.87286        -0.21870
C          7.31607         8.51180         0.27514
C          8.55370        10.65535         0.48775
C          7.39007         9.90784         0.68466
C          8.64321        12.02568         0.85958
C          7.50869        12.67495         1.59709
C          8.59914        14.85920         1.21541
C          7.41459        14.16403         1.33454
C          8.57793        16.31990         1.58550
C          7.28715        17.00956         1.18941
C          8.58610        19.14049         0.99734
C          7.33399        18.39995         0.91511
C          8.54226        20.58608         0.83963
C          7.41643        21.24847         0.41490
C          8.63756        23.50902         0.41390
C          7.42678        22.71459         0.01253
C          8.65106        24.90357         0.22483
C          7.41755        25.62612         0.00109
C          8.68462        27.74667        -0.17316
C          7.45147        27.02866        -0.19455
C          8.72622        29.15632        -0.41125
C          7.45642        29.94695        -0.65182
C         11.09698         3.60443        -0.34664
C          9.82662         4.25491        -0.17762
C         11.01141         6.42215        -0.70134
C          9.82316         5.75940        -0.06628
C         10.94302         7.92046        -0.92352
C          9.69544         8.57038        -0.36542
C         11.01981        10.70945         0.04016
C          9.69442        10.08115        -0.31746
C         11.05908        12.06599         0.39646
C          9.83071        12.75765         0.71394
C         11.06722        14.88698         0.99568
C          9.85378        14.16998         1.00290
C         11.03461        16.32470         1.10366
C          9.84425        17.04191         1.19720
C         11.08414        19.20860         1.13101
C          9.81619        18.47799         1.13976
C         11.09212        20.62179         1.15078
C          9.78955        21.33447         1.16298
C         11.13205        23.46373         0.73636
C          9.80873        22.81890         0.95507
C         11.14701        24.92025         0.40343
C          9.87699        25.64110         0.26426
C         11.16240        27.73732         0.04812
C          9.90764        27.03776         0.06554
C         11.18028        29.15761        -0.16572
C          9.93844        29.82777        -0.40133
C         13.50845         3.53033        -0.70283
C         12.24980         4.27867        -0.71271
C         13.36892         6.55221        -1.20314
C         12.17323         5.74004        -0.95721
C         13.42998         7.89230        -0.69630
C         12.21140         8.59712        -0.43354
C         13.48702        10.61397         0.26912
C         12.21451         9.94188        -0.05659
C         13.52613        12.08470         0.32533
C         12.30798        12.78327         0.49145
C         13.56976        14.86137         0.78136
C         12.32672        14.19119         0.76671
C         13.62067        16.28004         1.21117
C         12.31970        17.04063         1.26739
C         13.54021        19.21893         1.11666
C         12.31818        18.51500         1.16194
C         13.53008        20.63424         1.16319
C         12.31643        21.33043         1.21485
C         13.61035        23.53000         1.04076
C         12.32408        22.83547         1.43317
C         13.61604        24.95440         0.83189
C         12.39097        25.67892         0.57763
C         13.70306        27.73538         0.06569
C         12.37936        27.04268         0.30123
C         13.63822        29.24383         0.14687
C         12.39272        29.87888        -0.07878
C         15.98022         3.43410        -1.42758
C         14.59594         3.85468        -1.46969
C         15.82429         6.54186        -1.53830
C         14.52892         6.00972        -1.74573
C         15.87325         7.88414        -1.05547
C         14.68464         8.53599        -0.63964
C         15.98945        10.67164        -0.31975
C         14.78212         9.87902        -0.05878
C         15.98157        12.06940        -0.11268
C         14.76236        12.76843         0.23209
C         15.99127        14.91323         0.18328
C         14.78034        14.18995         0.41405
C         16.02956        16.34954         0.35119
C         14.96057        17.02749         1.19247
C         15.90445        19.22749         0.50304
C         14.81326        18.51876         0.90750
C         15.89176        20.73318         0.33595
C         14.85824        21.34997         1.28375
C         16.05515        23.52583         0.91087
C         14.80286        22.83906         1.05180
C         16.06786        24.95914         0.90267
C         14.83332        25.65345         0.86636
C         16.10606        27.83726         0.75399
C         14.78464        27.15956         0.97562
C         16.09223        29.26589         0.53774
C         14.82980        29.93644         0.30457
C         18.34385         3.63588        -1.87204
C         17.04538         4.28161        -1.68342
C         18.25286         6.44701        -1.53761
C         17.03685         5.75996        -1.65368
C         18.30132         7.87888        -1.37560
C         17.11790         8.58601        -1.03997
C         18.37247        10.70770        -0.93638
C         17.15310         9.99159        -0.76834
C         18.38029        12.12320        -0.73706
C         17.18311        12.80723        -0.35383
C         18.36527        14.95531        -0.56406
C         17.17359        14.23331        -0.25603
C         18.30420        16.45108        -0.76326
C         17.11984        17.07007        -0.06211
C         18.40606        19.28872        -0.02512
C         17.10249        18.53860         0.00020
C         18.42019        20.66813         0.50705
C         17.25117        21.37070         0.61186
C         18.51596        23.50699         0.81764
C         17.27225        22.80511         0.84630
C         18.52766        24.94382         0.79130
C         17.30605        25.66525         0.84182
C         18.55481        27.80910         0.72834
C         17.31360        27.11698         0.79987
C         18.57163        29.30470         0.92443
C         17.28263        29.96932         0.55435
C         19.51430         4.29524        -1.82877
C         20.70169         6.50743        -2.02280
C         19.57449         5.72741        -1.39501
C         20.68642         7.85966        -2.00661
C         19.52794         8.59592        -1.53343
C         20.75895        10.77032        -1.46713
C         19.55966        10.00801        -1.32563
C         20.77061        12.13181        -1.27445
C         19.59087        12.85351        -0.92822
C         20.79133        15.05849        -0.92157
C         19.57029        14.28459        -0.82172
C         20.82142        16.39648        -0.67051
C         19.61964        17.16347        -0.45251
C         20.88967        19.26941         0.01629
C         19.66182        18.50862        -0.13543
C         20.92353        20.54244         0.46558
C         19.71865        21.27292         0.99976
C         20.94107        23.49442         0.74203
C         19.74709        22.78330         0.79491
C         20.95702        24.89763         0.66268
C         19.77631        25.64237         0.67900
C         20.95367        27.82897         0.31760
C         19.77991        27.10461         0.59815
C         20.91452        29.23483         0.09887
C         19.77659        29.95779         0.31324
O         17.58215        19.17811        -1.27062
O         11.33318        23.82314        -0.65081
O         14.39224         4.82588        -2.47346
O          2.66736        12.55125         2.24970
O          1.71673         8.11852         2.33052
O          2.53512        22.93023         0.54043
O         12.97202        16.52360         2.51005
O          3.88493        14.69917         2.34302
O          3.85828        27.56026         0.37292
O         14.27662         9.96682         1.32283
O         10.92050         8.15492        -2.36793
H         10.59361         9.07762        -2.49784
O         18.08895        16.64524        -2.20499
H         17.94383        17.61608        -2.32488
O          5.72412         6.51678        -1.60073
H          5.35764         5.65355        -1.89238
O          0.03463        15.62539         0.90388
H         -0.26994        14.92902         1.52431
O         14.37410        27.46926         2.34347
H         15.10147        27.20768         2.94595
O          5.16291         8.05695         2.52107
H          4.31578         8.22451         2.98970
O         19.74679        21.06671         2.45403
H         18.93081        21.46646         2.82410
O          6.35568        23.54496         1.95160
H          5.57320        23.99923         2.32746
O          7.36690        22.76548        -1.46007
H          8.26932        22.59884        -1.80700
O          2.72179         9.95087        -0.70603
H          2.76025        10.87754        -1.02455
O          8.47252         6.26345        -2.00516
H          7.55384         6.50747        -2.27442
O          7.84928        12.56122         3.03373
H          7.04390        12.78010         3.54893
O          4.72852        20.98104         1.98492
H          3.90280        21.40380         2.30023
O          3.41029        26.42269        -3.05963
H          2.77674        25.89593        -3.59178
O         14.08757        27.40594        -1.29917
H         13.39109        27.74333        -1.90013
O         15.49562        16.94913         2.54552
H         14.71823        16.97621         3.15243
O          6.06497        20.42904        -1.38231
H          6.35875        21.30643        -1.73586
O          0.71858         6.16825        -0.67678
H          0.64363         5.21775        -0.90747
O         18.72780        29.50597         2.40525
H         19.59460        29.11384         2.64772
O         19.86709         5.69119         0.05086
H         19.89320         6.62183         0.36079
O          8.61325        16.34054         3.06092
H          7.90384        15.74149         3.37790
O          9.63675        22.25379         2.32334
O         12.17360        23.05611         2.86334
H         11.27236        22.72236         3.10634
O          7.62069        30.81452        -1.78521
H          7.77405        30.25700        -2.57517
O          9.89902         6.07199         1.36082
H         10.69609         5.63159         1.72350
O         15.50136        21.03530        -1.02048
H         16.15171        20.57844        -1.60379
O         15.34899        21.12634         2.63332
H         14.68438        21.49129         3.25550
O          9.44692        10.49700        -1.72440
H          8.54562        10.18717        -1.96086
H          1.41293         2.38031         1.70434
H         -0.69306         3.60602         2.22413
H         -0.93169         6.01390         1.72984
H         -1.02011         7.97550         0.45038
H         -0.99644        10.38905         0.27701
H         -0.63858        11.99341        -0.90667
H         -0.56014        14.31331        -1.55216
H         -0.16310        16.14142        -2.26453
H          0.22611        18.41879        -3.09958
H          0.44563        20.42875        -3.49960
H          0.27360        22.88323        -3.42654
H         -0.52443        24.67280        -2.36178
H         -0.59072        27.14089        -2.57810
H          0.66345        29.28790        -2.81281
H          3.82518         2.43684         1.17932
H          2.73443        30.59513        -2.55830
H          6.23816         2.46830         0.62593
H          5.11358        30.75067        -1.69023
H          8.64712         2.47583         0.06125
H          7.29818        30.62798         0.23236
H         11.13859         2.51167        -0.21597
H          9.94999        30.91254        -0.58322
H         13.58077         2.68674         0.00077
H         12.35902        30.97764        -0.14338
H         16.20600         2.37081        -1.24267
H         14.82989        31.03667         0.25578
H         18.33263         2.55799        -2.09738
H         17.28239        31.05706         0.38700
H         20.46238         3.76465        -2.00306
H         21.58806         5.96329        -2.38163
H         21.55592         8.41556        -2.38555
H         21.69697        10.26737        -1.73795
H         21.71906        12.66790        -1.41068
H         21.74128        14.54050        -1.10776
H         21.79504        16.90527        -0.64188
H         21.83880        18.79164        -0.26680
H         21.90291        21.03401         0.55505
H         21.90476        22.96758         0.75575
H         21.93107        25.40149         0.60186
H         21.90718        27.30640         0.16608
H         21.82425        29.73373        -0.26651
H         19.76330        31.04567         0.15267
