         720
 CSIRO Nanostructure Databank - Neutral Graphene Oxide Data Set
C         23.98892        27.86964        -4.43517
C         23.87563        29.19342        -3.93072
C         23.55957        31.65213        -2.21603
C         23.47279        32.90790        -1.60226
C         23.32643        35.95519        -1.37787
C         23.10901        37.29137        -1.24518
C         23.43824        40.31060        -1.60085
C         23.61233        41.65525        -1.72265
C         23.43614        44.60241        -1.50862
C         23.41393        45.94899        -1.46723
C         26.44699        25.02859        -4.32867
C         25.29893        25.78080        -4.63152
C         26.25433        27.79148        -3.45245
C         25.16214        27.13393        -4.26452
C         26.36071        29.29744        -3.74419
C         24.95878        29.93208        -3.48420
C         25.76346        32.22408        -2.89034
C         24.73781        31.25849        -2.89668
C         25.80103        33.35901        -2.06505
C         24.57637        33.77573        -1.49152
C         25.77091        35.90428        -0.86199
C         24.46365        35.11308        -0.77317
C         25.80461        37.14096        -0.28059
C         23.94071        38.19616        -0.46452
C         25.39704        40.22450        -0.04505
C         24.22753        39.53327        -0.68278
C         25.48156        41.70306        -0.14627
C         24.59821        42.37980        -0.94781
C         25.52226        44.60050        -0.15645
C         24.72438        43.86518        -1.21270
C         25.58648        46.06482        -0.31665
C         24.54536        46.72336        -0.95943
C         25.66695        48.86698        -0.59512
C         24.56349        48.14373        -1.05542
C         28.98155        23.54595        -3.77270
C         28.75439        24.84914        -3.35619
C         27.57948        25.59572        -3.73249
C         28.73252        27.71466        -2.81454
C         27.59138        27.06526        -3.54298
C         28.56189        29.10748        -2.35998
C         27.52162        29.86561        -2.93326
C         28.48655        31.89293        -1.91538
C         27.65804        31.24611        -2.84703
C         28.33015        33.32575        -1.67701
C         27.08523        34.01118        -1.78114
C         28.22375        36.08327        -1.14283
C         27.02139        35.35198        -1.32978
C         28.18590        37.53672        -0.94107
C         26.85124        38.13195        -0.54346
C         28.03730        40.33164        -0.04671
C         26.77699        39.51920         0.00668
C         27.95474        41.68892         0.27846
C         26.62820        42.33561         0.64937
C         27.86995        44.68306         0.79537
C         26.62700        43.88131         0.56065
C         27.86986        46.04594         0.68746
C         26.57598        46.81986         0.52615
C         27.93922        48.97978         0.37905
C         26.72710        48.25460         0.07986
C         27.90658        50.42231         0.52646
C         31.08836        23.27131        -2.53385
C         30.13001        22.78945        -3.38846
C         30.85891        24.58091        -1.88916
C         29.69059        25.43955        -2.36057
C         30.76586        27.52944        -1.43109
C         29.78479        26.90620        -2.17786
C         30.74803        28.96609        -1.16452
C         29.57336        29.72835        -1.58444
C         30.46491        31.76513        -0.39484
C         29.47182        31.10818        -1.27697
C         30.56941        33.26210        -0.53878
C         29.48205        34.01229        -1.21986
C         30.70316        36.18093        -0.95142
C         29.45437        35.41486        -1.12063
C         30.64744        37.62723        -0.66876
C         29.41857        38.28474        -0.60022
C         30.54994        40.46444        -0.29223
C         29.29722        39.67558        -0.29298
C         30.47620        41.90690         0.14155
C         29.17317        42.44209         0.62245
C         30.42410        44.66145         0.79964
C         29.14894        43.93428         0.96240
C         30.36425        46.11180         0.62590
C         29.10856        46.83517         1.06529
C         30.39550        49.01358         0.65995
C         29.12333        48.28532         0.62324
C         30.33625        50.54800         0.83911
C         28.99594        51.13904         0.90778
C         33.86736        20.70581        -2.87915
C         32.63158        21.25543        -2.87330
C         33.49582        23.30255        -1.77834
C         32.27326        22.45831        -2.03178
C         33.36872        24.69937        -1.37811
C         31.99811        25.27772        -1.20365
C         33.10460        27.50458        -0.45592
C         31.90018        26.75038        -0.88140
C         33.01774        28.84953        -0.21728
C         31.80946        29.59264        -0.51248
C         32.87948        31.76088         0.64327
C         31.57612        30.90924         0.23016
C         32.94204        33.22215         0.19767
C         31.85506        33.93371        -0.26002
C         33.01580        36.15088         0.14717
C         31.94129        35.39063        -0.54590
C         33.12041        37.62400        -0.05185
C         31.96640        38.37468        -0.70502
C         32.99095        40.47110         0.20943
C         31.86893        39.79566        -0.19871
C         32.92276        41.88064         0.57576
C         31.71490        42.57857         0.56974
C         32.90773        44.74144         0.84950
C         31.65471        44.00166         0.76946
C         32.91323        46.12442         0.84952
C         31.68287        46.87919         0.62707
C         32.81186        48.97722         1.39660
C         31.65799        48.30862         0.96674
C         32.68862        50.39748         1.81977
C         31.51179        51.20676         1.46711
C         32.75208        53.27187         1.96222
C         31.54316        52.56412         1.69375
C         36.39625        19.25082        -2.39202
C         36.21945        20.64582        -2.04029
C         34.99844        21.28560        -2.17612
C         35.85232        23.28442        -0.78622
C         34.74280        22.59119        -1.51561
C         35.76103        24.71997        -0.45223
C         34.52384        25.45619        -0.75616
C         35.53556        27.47833         0.31435
C         34.25653        26.69515         0.09994
C         35.47506        28.87682         0.48046
C         34.11873        29.54491         0.55782
C         35.43262        31.74557         0.63888
C         34.17529        31.02811         0.17742
C         35.40699        33.16866         0.59117
C         34.21791        33.88011         0.40692
C         35.50302        36.06656         0.67100
C         34.22033        35.35220         0.56204
C         35.58530        37.56972         0.43460
C         34.24994        38.28184         0.30270
C         35.38960        40.37694         1.10495
C         34.35457        39.78530         0.15193
C         35.25833        41.78897         1.46242
C         34.10691        42.58243         0.99651
C         35.35468        44.68093         1.35571
C         34.12461        43.97583         1.07658
C         35.42132        46.14322         1.09560
C         34.16994        46.95421         0.76680
C         35.28004        49.04162         1.77794
C         34.07545        48.31418         1.46824
C         35.25503        50.43094         1.96985
C         33.99579        51.17239         2.10566
C         35.24505        53.37241         1.88424
C         33.98110        52.64325         2.01227
C         35.28622        54.77087         1.68674
C         38.71626        19.14892        -1.48365
C         37.51506        18.54423        -2.10691
C         38.66709        20.62376        -1.16358
C         37.41351        21.37817        -1.52103
C         38.24011        23.24593         0.04471
C         37.23780        22.72996        -0.90923
C         37.94321        24.53084         0.68175
C         36.79237        25.34300         0.21569
C         37.86417        27.41524         1.11840
C         36.73169        26.75579         0.51776
C         37.71629        28.84153         1.47757
C         36.59543        29.60908         0.92768
C         37.83807        31.77033         1.34402
C         36.60092        31.04455         0.99801
C         37.88180        33.16154         1.18523
C         36.73244        33.88972         0.51853
C         37.96062        36.10959         0.79163
C         36.65114        35.36718         0.82277
C         37.88732        37.51332         1.39357
C         36.52125        38.17009         1.49952
C         37.71323        40.36491         1.95054
C         36.54809        39.68901         1.48071
C         37.78072        41.78335         2.05103
C         36.50089        42.53701         1.94916
C         37.71000        44.70653         2.10026
C         36.49948        44.00168         1.76393
C         37.73372        46.08145         2.14559
C         36.63000        46.88115         1.59141
C         37.74156        49.00814         2.15449
C         36.57569        48.34983         1.85266
C         37.77787        50.48302         2.33841
C         36.48337        51.21573         2.18626
C         37.67963        53.33468         1.54558
C         36.47520        52.67133         1.86348
C         37.70322        54.73111         1.32015
C         36.48210        55.43241         1.44709
C         40.65275        16.12581        -0.28690
C         39.66956        16.90926        -0.87122
C         40.66375        18.93781         0.08244
C         39.68168        18.31076        -0.73620
C         40.61519        20.37466         0.36088
C         39.58373        21.16582        -0.12620
C         40.46247        23.15660         1.09522
C         39.40921        22.53490         0.34929
C         40.39261        24.54466         1.45724
C         39.09190        25.25202         1.37566
C         40.13566        27.40027         2.13936
C         39.01387        26.72160         1.46614
C         40.21357        28.88153         2.09555
C         38.96483        29.62913         1.99316
C         40.29150        31.72076         1.91404
C         39.03125        31.07151         1.75548
C         40.33475        33.16820         1.74404
C         39.10369        33.89531         1.40653
C         40.35422        36.04753         1.42797
C         39.10722        35.28417         1.31641
C         40.27545        37.42504         2.01516
C         38.99615        38.16381         1.82372
C         40.20483        40.29142         2.66573
C         38.92838        39.57760         2.29538
C         40.26975        41.81952         2.83818
C         38.95711        42.47320         2.37777
C         40.27927        44.62389         2.16119
C         38.92213        43.92579         2.46041
C         40.13959        46.02596         1.58917
C         39.02838        46.78277         2.30099
C         40.24035        48.95631         1.71357
C         39.03248        48.26867         2.27649
C         40.20686        50.43031         1.55644
C         39.08132        51.27248         2.14267
C         40.17643        53.25238         1.00352
C         38.88069        52.48350         1.19439
C         40.14668        54.68232         0.75484
C         38.95508        55.41698         0.95753
C         40.17793        57.50337         0.54165
C         39.00168        56.83128         0.82901
C         42.78739        15.96358         0.96142
C         41.67691        16.73265         0.47422
C         42.64350        18.70482         1.66059
C         41.65017        18.13184         0.68641
C         42.73550        20.20153         1.61183
C         41.68885        20.97322         1.15272
C         42.75913        23.05716         1.96635
C         41.66544        22.41909         1.40042
C         42.68580        24.46291         2.50261
C         41.49300        25.20836         1.97837
C         42.65575        27.34981         2.84454
C         41.36996        26.58434         2.46075
C         42.59623        28.60609         1.93208
C         41.43239        29.54801         2.12687
C         42.77858        31.68508         2.48195
C         41.49677        30.97616         2.15995
C         42.78273        33.17993         2.27658
C         41.54097        33.84202         1.83788
C         42.84455        36.02322         2.03218
C         41.62092        35.29121         1.63506
C         42.84122        37.39595         2.22154
C         41.54471        38.08865         2.47605
C         42.83561        40.35236         2.54185
C         41.54601        39.57907         2.68916
C         42.74468        41.75941         2.05909
C         41.52379        42.46080         2.20864
C         42.56435        44.43863         1.10697
C         41.44949        43.81216         1.82456
C         42.58735        45.98127         0.95798
C         41.48103        46.72461         1.61036
C         42.72948        48.88168         1.09174
C         41.55173        48.22205         1.68663
C         42.75363        50.36309         1.09986
C         41.50071        51.16018         1.37037
C         42.50978        53.19645         0.24103
C         41.37181        52.57664         0.94842
C         42.56249        54.65891         0.13107
C         41.36840        55.37021         0.41221
C         42.62126        57.45450         0.04842
C         41.38514        56.79550         0.33127
C         43.92407        16.58509         1.45033
C         45.19355        18.67169         1.95745
C         43.97449        17.98237         1.65236
C         45.21702        20.07463         2.15169
C         43.93465        20.80815         2.21974
C         45.26693        23.02369         2.17852
C         43.95398        22.29512         2.36951
C         45.23009        24.44768         2.72600
C         43.98960        25.26293         2.51056
C         45.29456        27.40518         3.03266
C         43.98186        26.61507         2.66386
C         45.36356        28.88687         2.64562
C         44.37434        29.78265         3.11069
C         45.27652        31.68092         1.94359
C         44.13178        31.02981         2.43096
C         45.28949        33.12098         1.79967
C         44.06360        33.88230         1.98247
C         45.30480        36.02135         1.57800
C         44.05999        35.26065         1.90981
C         45.27185        37.44793         2.06888
C         44.09922        38.12529         2.25712
C         45.24496        40.27364         1.62441
C         44.19824        39.63059         2.52871
C         45.13047        41.67093         1.25511
C         43.91154        42.39419         1.48398
C         45.00557        44.45337         0.59590
C         43.85402        43.74981         1.04860
C         44.98159        45.90902         0.33043
C         43.83042        46.68798         0.68920
C         44.95007        48.79463        -0.02307
C         43.81533        48.12158         0.65374
C         45.12467        50.27423         0.05844
C         43.94176        51.06080         0.50031
C         44.90875        53.11214        -0.69445
C         43.71731        52.40125        -0.11023
C         44.99374        54.57136        -0.44226
C         43.79559        55.31419        -0.15548
C         43.78159        56.74908        -0.16367
C         47.62458        18.61960         2.20609
C         46.43335        17.95651         2.05357
C         47.69215        20.03925         2.25922
C         46.45295        20.79009         2.32649
C         47.78449        22.87935         2.56761
C         46.48248        22.18812         2.52267
C         47.81125        24.38770         2.61297
C         46.53605        25.16724         2.83474
C         47.67282        27.29563         1.83211
C         46.47096        26.61934         2.44007
C         47.66529        28.76745         1.72481
C         46.49918        29.49272         1.99485
C         47.71576        31.63772         1.55242
C         46.51244        30.94683         1.81918
C         47.75755        33.08082         1.58971
C         46.51455        33.78438         1.70527
C         47.85186        35.97266         1.93430
C         46.54723        35.24613         1.94125
C         47.83955        37.47774         1.84298
C         46.54213        38.20725         1.98881
C         47.56799        40.12649         0.71777
C         46.41129        39.57351         1.43661
C         47.48663        41.58483         0.37310
C         46.26039        42.35150         0.72832
C         47.50718        44.48850         0.14687
C         46.22167        43.74233         0.47822
C         47.26735        45.76286        -0.62580
C         46.10337        46.54753        -0.19287
C         47.47165        48.69727        -0.57230
C         46.12288        47.99316        -0.47512
C         47.36351        50.16257        -0.97970
C         46.21786        50.87683        -0.76321
C         47.40387        53.10065        -1.44633
C         46.11969        52.32414        -1.11646
C         47.44273        54.41026        -0.68154
C         46.30971        55.12249        -0.37761
C         50.15347        20.01882         1.80687
C         48.94069        20.71733         2.08500
C         50.16031        22.82147         1.75854
C         48.98339        22.14173         2.09272
C         50.14425        24.28789         1.55578
C         48.91295        25.07604         1.86447
C         50.16281        27.19543         1.66936
C         48.97144        26.56739         1.83948
C         50.19286        28.64046         1.31776
C         48.90269        29.44013         1.29702
C         50.13848        31.60227         1.13273
C         48.95016        30.92429         1.34825
C         50.19874        33.05362         1.17313
C         48.98695        33.77782         1.47886
C         50.22152        35.90784         1.22070
C         49.06543        35.22582         1.52829
C         50.25636        37.38814         1.13535
C         48.98792        38.14817         1.18945
C         50.04159        40.12308         0.14621
C         48.89677        39.44425         0.75345
C         49.95797        41.49054        -0.22387
C         48.79994        42.33449         0.25779
C         49.75418        44.34754        -1.00606
C         48.51007        43.58125        -0.61133
C         49.74537        45.69242        -1.22044
C         48.45251        46.43572        -1.25573
C         49.76873        48.61198        -1.59453
C         48.40735        47.94419        -1.55400
C         49.78895        50.07306        -1.61413
C         48.60520        50.82973        -1.38632
C         49.91017        52.88586        -1.49811
C         48.66289        52.24855        -1.37407
C         51.30943        20.68829         1.48310
C         52.48999        22.82364         0.91954
C         51.33893        22.11001         1.39353
C         52.55704        24.26596         1.03495
C         51.41798        24.99777         1.39154
C         52.60735        27.17821         1.00712
C         51.49376        26.45843         1.80519
C         52.81694        28.64120         1.46633
C         51.47513        29.40195         1.50634
C         52.73077        31.58716         0.90422
C         51.43264        30.87647         1.27163
C         52.46443        32.93818         0.18465
C         51.39366        33.71612         0.91501
C         52.56069        35.83954         0.19350
C         51.55175        35.19508         1.13676
C         52.51399        37.18781        -0.11397
C         51.40890        38.03314         0.39569
C         52.30111        40.02348        -0.81400
C         51.22441        39.39721        -0.14967
C         52.26038        41.41114        -1.03033
C         51.08101        42.14655        -0.75144
C         52.14613        44.22642        -1.89817
C         50.96534        43.53533        -1.29206
C         52.06829        45.71337        -2.27214
C         51.05723        46.44350        -1.36514
C         52.11095        48.57291        -2.39809
C         50.91446        47.88984        -1.76964
C         52.25641        49.98418        -1.88432
C         51.05382        50.74225        -1.69479
C         51.08516        52.15543        -1.59943
C         54.68435        22.83051        -0.13029
C         53.58495        22.14109         0.33240
C         54.80733        24.23533         0.06449
C         53.78325        24.94137         0.67122
C         55.01169        27.12372         0.27105
C         53.95321        26.39286         1.06860
C         54.94604        28.54531         0.14350
C         53.87323        29.29876         0.59264
C         55.02441        31.47886         0.00950
C         53.70482        30.71448         0.08298
C         54.99347        32.94472        -0.26914
C         53.77507        33.68453        -0.00941
C         54.94787        35.81156        -0.51855
C         53.73974        35.06393        -0.12443
C         54.75764        37.16047        -1.07613
C         53.58187        37.82514        -0.86900
C         54.74061        39.96078        -1.57255
C         53.41197        39.21488        -1.45691
C         54.76702        41.42180        -1.58010
C         53.52780        42.15587        -1.25996
C         54.70492        44.29858        -2.06173
C         53.48075        43.62136        -1.59535
C         54.66659        45.68603        -2.29411
C         53.41493        46.42708        -2.25561
C         54.62330        48.57247        -2.80919
C         53.40280        47.78701        -2.38926
C         54.69827        49.82922        -1.98978
C         53.55076        50.49071        -1.61872
C         57.33176        24.28324        -0.29848
C         55.98090        24.91068        -0.60670
C         57.22401        27.04388        -0.78711
C         56.07480        26.40616        -0.35755
C         57.38769        28.50782        -0.48173
C         56.03206        29.20803        -0.69112
C         57.37492        31.34051        -1.01493
C         56.21776        30.67916        -0.39276
C         57.37657        32.80170        -1.06584
C         56.13427        33.55543        -0.76323
C         57.19447        35.66732        -1.78276
C         56.19190        35.01947        -0.91124
C         57.15200        37.03998        -1.98864
C         55.81697        37.76072        -1.96722
C         57.21947        39.96772        -1.83677
C         55.88869        39.25342        -1.78570
C         57.07393        41.33462        -2.51388
C         55.90131        42.12062        -1.96262
C         57.13743        44.26805        -2.34350
C         55.91730        43.56090        -2.10973
C         57.12729        45.65311        -2.49979
C         55.89815        46.39185        -2.50432
C         57.11577        48.43815        -3.13209
C         55.89974        47.78513        -2.75081
C         58.45198        24.91266        -0.67651
C         59.64420        27.01427        -1.46796
C         58.35389        26.24886        -1.38844
C         59.65415        28.38005        -1.54749
C         58.49636        29.16732        -1.27526
C         59.42563        31.22826        -2.36448
C         58.44641        30.57501        -1.51334
C         59.38379        32.55770        -2.62519
C         58.47810        33.46563        -1.90107
C         59.47530        35.60591        -2.78728
C         58.21336        34.83312        -2.52043
C         59.49047        36.96091        -2.77109
C         58.31096        37.73884        -2.46759
C         59.47102        39.89240        -2.84922
C         58.34739        39.16763        -2.47561
C         59.52214        41.31830        -2.72021
C         58.39763        42.06391        -2.50893
C         59.40738        44.21938        -3.33031
C         58.48712        43.56038        -2.31227
C         59.40515        45.54926        -3.46525
C         58.45141        46.38169        -2.63893
C         58.31069        47.78645        -3.14887
O         58.58936        33.43207        -0.46714
O         26.87691        32.01794        -3.72304
O         53.64962        43.18753        -0.19856
O         33.18228        35.77190         1.54331
O         35.51126        42.04765         2.90009
O         48.17578        23.65239         3.80831
O         40.33183        26.77848         3.48657
O         39.76307        44.49896         3.50008
O         29.63419        24.67502        -1.10469
O         28.67702        27.67656        -4.30717
O         33.15193        50.63383         3.18225
O         30.93819        46.58019        -0.61928
O         37.07524        50.93723         3.54309
O         43.76183        21.47021         3.55587
O         36.16418        37.77985        -0.85900
O         41.24150        35.81229         0.28038
O         42.24640        40.07896         3.86927
O         38.06201        24.54280         2.14597
O         47.45265        45.70885        -2.08370
O         43.20102        28.62523         0.87160
O         56.08771        35.71930         0.39455
O         39.32993        39.73374         3.70911
O         30.60624        49.95455        -0.46278
O         31.74806        35.78179        -1.94019
O         56.00071        31.05898         1.01464
O         37.70203        22.60240        -2.29899
O         37.92314        29.14456         2.89465
O         29.91289        32.62578         0.65342
O         45.10455        48.39992        -1.44058
O         39.27002        47.52835         3.52087
O         34.24991        25.63224        -2.18168
O         45.83122        24.73620         4.03314
O         42.66725        32.60099         3.62871
O         42.61749        52.43132        -1.07001
O         34.96045        22.43426         0.02418
O         51.36146        38.01914         1.88390
O         42.46303        50.93108         2.44251
O         51.28635        43.43345        -2.75405
O         27.30787        38.17548        -1.93809
O         25.95153        39.66911         1.17974
O         47.25360        40.58637        -0.65399
O         31.61448        25.69074         0.14247
O         45.10842        50.91985         1.37997
O         51.45927        30.31049         2.65072
O         36.48553        46.51595         0.15241
O         47.47135        38.10862         3.12275
O         25.39531        44.29732         1.28573
O         39.38431        20.13835        -2.35037
O         49.51673        28.90808         0.05035
O         47.23442        35.53375         3.19124
O         46.60006        26.68129         0.98937
O         49.09327        24.59163         0.48641
O         45.07782        52.65418        -2.09877
O         41.83744        47.37495         2.85288
O         39.89002        49.57334         0.42365
O         30.48280        41.57181        -1.28048
O         24.71800        37.53768         0.52332
O         29.18151        42.91457         2.01036
O         40.69051        37.37603         3.43081
O         42.17055        45.11600        -0.15915
O         52.19157        27.25584        -0.36648
H         51.77274        26.40732        -0.62476
O         47.87644        48.13026        -2.87791
H         47.28930        47.36357        -3.07360
O         51.66806        46.45697        -0.03786
H         51.03218        46.85591         0.59302
O         57.61296        40.21486        -0.46338
H         57.74154        39.35361        -0.01434
O         42.53498        27.59782         4.24837
H         41.60468        27.38748         4.51360
O         45.32085        23.20676         0.72019
H         46.11913        23.72885         0.48614
O         53.22677        30.54516        -1.28282
H         53.88095        29.97734        -1.76416
O         45.36810        27.36561         4.47694
H         45.32697        26.41445         4.75157
O         38.56021        51.90481        -0.10282
H         38.65535        52.59852        -0.78830
O         44.75934        39.78658         3.85198
H         44.02231        39.67291         4.49550
O         59.07008        43.75594        -0.99793
H         59.20468        44.73149        -0.88223
O         34.24219        47.33232        -0.64114
H         35.19474        47.28115        -0.90013
O         57.73138        28.62253         0.92852
H         57.54467        29.54087         1.22448
O         55.33054        37.54157        -3.34141
H         54.45829        38.00877        -3.41701
O         45.37718        36.12867         0.11061
H         44.49583        36.40795        -0.21882
O         26.42682        42.04326         2.04951
H         25.68498        42.60791         2.35936
O         37.09002        33.83492        -0.91559
H         37.67459        34.62261        -1.09131
O         42.40872        24.29375         3.94265
H         41.62780        23.70693         4.03576
O         35.98573        37.79397         2.79517
H         36.55503        38.18190         3.49333
O         54.41172        48.97399        -4.23432
H         54.66382        48.20641        -4.79164
O         40.36903        42.07065         4.25339
H         39.87002        41.35733         4.71185
O         48.06820        44.98236         1.38662
H         48.27256        44.20477         1.96197
O         25.56786        43.98737        -2.40411
H         25.09584        43.57004        -3.15502
O         31.00491        30.42888         1.47170
H         30.58524        31.20917         1.90303
O         34.92327        40.06185        -1.15507
H         35.50882        39.26522        -1.35538
O         49.16987        42.68840         1.62273
H         50.12908        42.89080         1.65162
O         33.86524        26.27868         1.43946
H         32.96141        25.87711         1.36274
O         25.85097        27.69510        -2.05603
H         25.62092        26.76222        -1.86264
O         59.04567        46.49163        -1.28939
H         58.41970        47.00814        -0.73836
O         32.29180        38.47630        -2.12309
H         32.35809        37.55572        -2.47169
O         26.01204        46.90288         1.89732
H         25.63861        46.00441         2.08538
O         55.62631        29.12956        -2.08443
H         55.62030        28.18134        -2.34241
O         26.63151        29.48480        -5.14307
H         26.81845        30.43891        -5.28091
O         52.14982        35.36069         2.47469
H         52.12609        36.32945         2.66944
O         34.19906        31.05916        -1.27505
H         34.68506        31.85989        -1.56683
O         52.95917        38.98508        -2.84164
H         52.75167        39.85613        -3.24370
O         51.81293        26.45515         3.21515
H         52.77978        26.24740         3.29311
O         29.13596        46.87139         2.52504
H         28.22292        47.07146         2.83072
O         43.71206        29.60763         4.25145
H         44.03692        28.78493         4.69819
O         32.89531        31.88121         2.06856
H         32.91120        30.96675         2.44199
O         31.84700        21.94636        -0.71853
H         32.65775        21.73667        -0.20404
O         56.73918        41.07209        -3.91118
H         56.67764        41.93167        -4.37763
O         39.68699        45.93653         0.22245
H         40.42476        45.56127        -0.32099
O         54.41973        26.32500         2.45024
H         54.56458        27.25275         2.76054
O         38.28780        36.30012        -0.62545
H         37.54925        36.90554        -0.97536
O         57.59693        34.51930        -3.81996
H         57.34244        35.36921        -4.24090
O         53.34952        28.65180         2.80861
H         53.06766        29.51210         3.20927
O         47.88219        43.07068        -1.79690
H         47.71884        43.83381        -2.39973
O         48.04989        48.62990         0.75409
H         48.72458        49.33553         0.83771
O         53.44134        31.88679         2.11672
H         52.88342        32.47280         2.67144
O         51.88317        32.75230        -1.13063
H         52.34581        32.00773        -1.58727
O         55.71806        24.71479        -2.02531
H         56.47449        25.11501        -2.52744
O         42.08780        18.42088         3.00657
H         42.62297        18.92869         3.65503
O         51.59746        45.78399        -3.62956
H         51.50002        46.73693        -3.87788
O         57.99954        25.96723        -2.80074
H         58.73081        25.43946        -3.18663
O         24.14233        34.84585         0.60793
H         24.12980        35.71521         1.07108
O         33.76248        29.40345         1.96262
H         33.71121        28.43832         2.15594
O         39.53020        51.75032         3.41393
H         38.75498        51.73795         4.02368
O         51.75458        48.66859        -3.82972
H         52.56992        49.01504        -4.28012
O         47.34436        53.50614        -2.84430
H         46.38912        53.47138        -3.09971
H         23.11315        27.39998        -4.90728
H         22.87534        29.65293        -3.92304
H         22.69942        30.96975        -2.16539
H         22.52734        33.19361        -1.11979
H         22.61331        35.40450        -2.01381
H         22.27222        37.73198        -1.81157
H         22.64771        39.80859        -2.17611
H         22.97972        42.21173        -2.42722
H         22.54883        44.05135        -1.85099
H         22.50909        46.50066        -1.76344
H         26.43915        23.95475        -4.56401
H         24.46174        25.28464        -5.14471
H         25.72564        49.93916        -0.83186
H         23.74251        48.66116        -1.57065
H         28.27876        23.07413        -4.47363
H         26.92410        50.91503         0.52272
H         30.23247        21.78656        -3.82544
H         28.88030        52.18212         1.23408
H         34.03288        19.79486        -3.47282
H         31.83095        20.74144        -3.42454
H         32.69253        54.36869         1.97387
H         30.64336        53.16654         1.50424
H         35.54952        18.72014        -2.84940
H         34.35897        55.35855         1.71560
H         37.53775        17.47553        -2.36221
H         36.45057        56.52028         1.30275
H         40.65681        15.03711        -0.43679
H         38.89708        16.42209        -1.48050
H         40.17837        58.60082         0.47563
H         38.09100        57.42404         0.98637
H         42.77956        14.87387         0.81564
H         42.63296        58.55323         0.00076
H         44.81043        15.96516         1.64400
H         44.71038        57.29317        -0.38458
H         48.54880        18.02858         2.24964
H         46.44279        16.86148         1.98745
H         48.41462        54.91198        -0.56384
H         46.42637        56.14934         0.00229
H         50.17433        18.92164         1.83391
H         49.96039        53.98282        -1.51937
H         52.21665        20.10620         1.27362
H         52.04418        52.68489        -1.68331
H         55.49145        22.29153        -0.64525
H         53.54167        21.05267         0.19380
H         55.68000        50.21331        -1.67678
H         53.64673        51.45116        -1.08912
H         57.37637        23.30172         0.19765
H         57.06105        49.49004        -3.44962
H         59.44616        24.47537        -0.49530
H         60.56635        26.44685        -1.66647
H         60.59669        28.88955        -1.80157
H         60.14312        30.59867        -2.90917
H         60.02592        32.97948        -3.41199
H         60.38844        35.05145        -3.04759
H         60.43145        37.48086        -2.99792
H         60.37315        39.38376        -3.21712
H         60.50492        41.80600        -2.79916
H         60.10502        43.59908        -3.91338
H         60.08804        46.05624        -4.16390
H         59.22703        48.31534        -3.44896
