         410
 CSIRO Nanostructure Databank - Neutral Graphene Oxide Data Set
C         28.88675        27.54900         3.24779
C         28.73506        28.91053         2.86918
C         27.51694        29.60718         3.08662
C         28.48377        31.65121         2.17667
C         27.38497        30.92908         2.71861
C         28.39361        33.09564         1.88939
C         27.17370        33.84338         2.13029
C         28.20061        35.98593         1.47539
C         27.03914        35.16713         1.84388
C         28.08217        37.39429         0.98306
C         26.93049        38.14169         1.28633
C         27.97201        40.19996         0.49358
C         26.87448        39.50853         1.05015
C         27.94970        41.65189         0.31877
C         26.79606        42.40478         0.63418
C         27.93229        44.48283         0.07690
C         26.79181        43.78657         0.54603
C         27.95827        45.91887         0.04794
C         31.11353        27.51598         2.26453
C         30.05807        26.87932         2.97092
C         31.01968        28.86958         1.91115
C         29.82958        29.59577         2.26072
C         30.93550        31.76805         1.61685
C         29.69844        30.97982         1.96920
C         30.61257        32.94560         0.70316
C         29.45213        33.73398         1.27896
C         30.49343        35.81428         0.28493
C         29.45359        35.19257         1.15282
C         30.39681        37.27748        -0.02233
C         29.17830        38.05135         0.37507
C         30.27966        40.15658        -0.43829
C         29.11165        39.44128         0.11642
C         30.32970        41.62379        -0.39277
C         29.11052        42.34958        -0.14358
C         30.17177        44.48305        -1.06615
C         29.08244        43.75650        -0.30015
C         30.30689        45.94899        -0.66153
C         29.11820        46.60490        -0.23763
C         33.83118        24.85724         2.03254
C         32.68177        25.47563         2.40160
C         33.24634        27.37340         0.81575
C         32.22374        26.69361         1.72347
C         33.22574        28.84076         0.70054
C         32.11040        29.54847         1.20426
C         33.16560        31.63867         0.48284
C         32.07286        30.95098         1.04667
C         33.10125        33.07595         0.31849
C         31.87331        33.75578         0.47611
C         32.98152        35.87709        -0.00592
C         31.81091        35.13782         0.26644
C         32.90831        37.31782        -0.11885
C         31.68046        37.98840        -0.17003
C         32.81572        40.24032        -0.17232
C         31.61924        39.41775        -0.49021
C         32.80835        41.68181        -0.48659
C         31.53971        42.30428        -0.64442
C         32.80166        44.46985        -1.17988
C         31.49962        43.71951        -1.08135
C         32.76239        45.97089        -1.25191
C         31.50395        46.67316        -0.89648
C         32.78319        48.78856        -0.75405
C         31.57665        48.07619        -0.75836
C         36.11762        23.30561         0.97186
C         35.84898        24.61918         0.51772
C         34.72328        25.40158         1.02611
C         35.42104        27.34918        -0.41606
C         34.50159        26.66958         0.53017
C         35.50334        28.82132        -0.34306
C         34.36296        29.52389         0.17135
C         35.50691        31.65128        -0.37724
C         34.34604        30.94464         0.09098
C         35.48622        33.08473        -0.36818
C         34.27387        33.78602        -0.05581
C         35.41962        35.94224        -0.45166
C         34.22343        35.20564        -0.16340
C         35.37289        37.37869        -0.41511
C         34.14731        38.03461        -0.21284
C         35.39530        40.24140        -0.01149
C         34.11577        39.47900         0.02728
C         35.30923        41.74856        -0.15628
C         34.02824        42.42544        -0.47576
C         35.27904        44.56641        -0.68826
C         34.05901        43.80424        -0.77149
C         35.31455        45.97690        -0.82484
C         34.07226        46.72458        -1.12228
C         35.28164        48.88790        -0.73386
C         34.03137        48.16782        -0.82890
C         35.30899        50.29391        -0.69759
C         37.82500        22.97874        -0.71534
C         37.12993        22.52293         0.42253
C         37.41806        24.21647        -1.23383
C         36.60607        25.13276        -0.56526
C         37.76434        27.33642        -1.45600
C         36.54149        26.56031        -1.03261
C         37.77382        28.74363        -1.34684
C         36.63787        29.49198        -0.84629
C         37.82740        31.69188        -1.21748
C         36.66221        30.94460        -0.81971
C         37.80841        33.10492        -1.14921
C         36.65056        33.81673        -0.72861
C         37.81482        36.02500        -1.01515
C         36.62944        35.26107        -0.71532
C         37.78047        37.42681        -0.96614
C         36.59109        38.13134        -0.61292
C         37.81568        40.29914        -0.61123
C         36.61228        39.54110        -0.45765
C         37.80347        41.73091        -0.42528
C         36.56751        42.46969        -0.40113
C         37.73144        44.63074        -0.20851
C         36.51360        43.85969        -0.46307
C         37.76077        46.06948        -0.46772
C         36.53109        46.73283        -0.69010
C         37.76217        48.89091        -0.64413
C         36.52277        48.17309        -0.71423
C         37.74339        50.31960        -0.59850
C         36.51803        50.98647        -0.64681
C         40.14468        20.19591        -1.65072
C         39.02777        20.89522        -1.24950
C         40.16790        23.03847        -1.67558
C         39.00318        22.31098        -1.27653
C         40.23676        24.47801        -1.83294
C         39.07421        25.26038        -2.06181
C         40.25819        27.34188        -1.94105
C         38.96931        26.63972        -1.82056
C         40.25760        28.82896        -2.02475
C         38.90227        29.54854        -2.01240
C         40.27002        31.65235        -1.71114
C         39.04843        30.99290        -1.56842
C         40.29165        33.12100        -1.87376
C         38.97024        33.87668        -1.62183
C         40.23908        35.99281        -1.57482
C         39.03348        35.32605        -1.37281
C         40.23338        37.48677        -1.66538
C         38.90547        38.24238        -1.55737
C         40.24873        40.34517        -0.93249
C         39.02269        39.63712        -0.95504
C         40.25347        41.74690        -0.64850
C         39.02965        42.42667        -0.44579
C         40.28274        44.62700        -0.37850
C         39.04946        43.86619        -0.16633
C         40.26707        46.03053        -0.38475
C         39.00383        46.76476        -0.45066
C         40.28558        48.88206        -0.66539
C         38.99848        48.16480        -0.60210
C         40.29660        50.39312        -0.56173
C         38.99507        51.19075        -0.60026
C         40.09334        52.82820         0.93007
C         38.96243        52.27611         0.45130
C         42.51043        20.15767        -2.30508
C         41.35268        20.88795        -1.93603
C         42.65198        23.00452        -1.94557
C         41.39526        22.31578        -1.84584
C         42.72480        24.43939        -1.65449
C         41.49091        25.16580        -1.68713
C         42.67815        27.30728        -1.41418
C         41.49011        26.58784        -1.63578
C         42.67987        28.76363        -1.45408
C         41.52256        29.52839        -1.69418
C         42.79337        31.65355        -1.82003
C         41.55062        30.95740        -1.74346
C         42.81655        33.13299        -1.84138
C         41.55869        33.87595        -1.79202
C         42.72784        36.09806        -1.76140
C         41.48573        35.28219        -1.73687
C         42.76320        37.49460        -1.29196
C         41.51629        38.24784        -1.46246
C         42.72130        40.32919        -0.87544
C         41.50921        39.67316        -1.08715
C         42.72314        41.75429        -0.64009
C         41.49357        42.46164        -0.56521
C         42.72829        44.58231        -0.32734
C         41.49941        43.88859        -0.44740
C         42.75123        46.01919        -0.26338
C         41.51756        46.73706        -0.35510
C         42.74151        48.86440        -0.19282
C         41.53477        48.15577        -0.36488
C         42.72775        50.28855         0.04753
C         41.50108        51.00219         0.03471
C         42.58478        52.88460         1.12416
C         41.40890        52.26051         0.66428
C         43.68720        20.83109        -2.56040
C         45.58272        23.29494        -1.49049
C         43.75283        22.22490        -2.35913
C         45.15343        24.48727        -0.94580
C         43.90550        25.15461        -1.29818
C         45.08130        27.29964        -0.81749
C         43.86630        26.57699        -1.13812
C         45.13190        28.72939        -1.05520
C         43.92889        29.44747        -1.35725
C         45.31003        31.27593        -2.00126
C         43.98893        30.83039        -1.71588
C         45.33187        33.39115        -1.97567
C         44.00471        33.88542        -1.77109
C         45.24122        36.02547        -1.15962
C         44.03628        35.35576        -1.68929
C         45.21333        37.41661        -0.94301
C         43.95861        38.14673        -1.01993
C         45.18642        40.24963        -0.62896
C         43.98027        39.58985        -0.83681
C         45.24838        41.75076        -0.73341
C         43.94239        42.45360        -0.45736
C         45.13741        44.54504         0.21298
C         43.92901        43.83550        -0.24737
C         45.21683        46.00201         0.05878
C         43.98453        46.72047        -0.16739
C         45.19669        48.85107         0.10889
C         43.98299        48.15006        -0.09853
C         45.18737        50.23599         0.41115
C         43.91764        50.94814         0.47243
C         43.81931        52.26483         0.97305
C         47.50828        23.11518        -0.02365
C         46.67291        22.54167        -0.97297
C         47.32940        24.46042         0.35246
C         46.01935        25.16119         0.08754
C         47.45297        27.25591        -0.13873
C         46.18800        26.61716        -0.29894
C         47.59473        28.60334        -0.72868
C         46.38098        29.39497        -1.00746
C         47.77000        31.54486        -1.44194
C         46.49619        30.72310        -1.49743
C         47.79003        33.14345        -1.55755
C         46.47603        33.89327        -1.38622
C         47.66411        35.96563        -0.73592
C         46.45468        35.28638        -0.99858
C         47.65890        37.38753        -0.57873
C         46.42850        38.11143        -0.64994
C         47.65772        40.22092        -0.26778
C         46.43566        39.53434        -0.51553
C         47.64765        41.65828        -0.01718
C         46.45282        42.35122        -0.05477
C         47.67943        44.51471         0.41964
C         46.42131        43.76305         0.35127
C         47.66665        45.92484         0.42680
C         46.44457        46.64818         0.19984
C         47.70312        48.82014         0.46675
C         46.50328        48.12554        -0.11680
C         47.62079        50.17479         0.76911
C         46.40967        50.88183         0.70873
C         49.49631        24.62937         1.57606
C         48.43407        25.21734         0.84960
C         49.88286        27.21664         0.51702
C         48.54139        26.59804         0.43915
C         50.07101        28.64602         0.03578
C         48.91199        29.32742        -0.63725
C         49.95405        31.56206         0.02234
C         48.95119        30.82686        -0.82072
C         49.96224        33.06466        -0.03240
C         48.87174        33.80250        -0.70082
C         50.12198        35.87400        -0.28189
C         48.88244        35.18765        -0.56123
C         50.13959        37.33411        -0.46432
C         48.87754        38.09752        -0.39160
C         50.12014        40.19256         0.16070
C         48.88665        39.49689        -0.19572
C         50.08956        41.58938         0.48254
C         48.86751        42.35142         0.36284
C         50.09269        44.47479         0.95925
C         48.87261        43.74586         0.54754
C         50.14302        45.94171         0.72515
C         48.92806        46.65087         0.55416
C         50.17859        48.74734         0.68413
C         48.94138        48.07783         0.55907
C         50.63714        25.34781         1.93401
C         52.09795        27.36035         1.66408
C         50.88150        26.63821         1.43424
C         52.19110        28.76360         1.33955
C         51.14526        29.44781         0.65781
C         52.23699        31.61072         1.06209
C         51.15233        30.84781         0.53797
C         52.29735        33.03913         0.79977
C         51.23951        33.75461         0.25244
C         52.55567        35.89769         0.19008
C         51.31637        35.18146        -0.01256
C         52.61209        37.29380         0.25216
C         51.43689        38.07386        -0.18084
C         52.52705        40.09510         0.71096
C         51.34725        39.48663         0.21710
C         52.36905        41.39241         1.23899
C         51.26478        42.21362         0.97056
C         52.67628        44.42233         1.04755
C         51.34924        43.68662         1.22842
C         52.67438        45.90118         0.80404
C         51.37405        46.63436         0.78090
C         51.36978        48.04111         0.75402
C         54.35809        27.43606         2.59223
C         53.21114        26.72927         2.27428
C         54.42264        28.83145         2.40137
C         53.31696        29.51510         1.79885
C         54.43798        31.67601         2.29361
C         53.31961        30.93425         1.68536
C         54.64956        33.14655         1.80732
C         53.63293        33.67168         0.86499
C         55.00964        35.84683         0.86122
C         53.78571        35.14322         0.46413
C         55.04512        37.26860         0.78195
C         53.82594        37.99470         0.57998
C         55.07774        40.11331         0.65433
C         53.82684        39.42222         0.68201
C         55.15256        41.55749         0.40237
C         54.18679        42.37295         0.94705
C         54.87711        44.33323        -0.44065
C         53.80928        43.66547         0.40644
C         54.83220        45.81358        -0.48849
C         53.82130        46.51137         0.05997
C         55.57070        29.57057         2.84075
C         55.57928        30.93101         2.81621
C         55.95818        33.79341         1.80722
C         56.11086        35.07116         1.32451
C         56.26449        37.99520         0.88368
C         56.27877        39.36418         0.72598
C         56.17689        42.22284        -0.37920
C         56.11202        43.55889        -0.65933
O         35.47907        41.09922         1.16978
O         30.06927        36.24549        -1.05140
O         38.36264        44.25448         1.07250
O         50.54071        44.13893         2.34192
O         30.87043        39.67338        -1.70785
O         32.10382        26.62816         0.26366
O         48.53916        28.65091        -1.86203
O         51.02217        37.78717        -1.55742
O         50.54106        27.53321        -0.77685
O         33.45374        46.44471        -2.44774
O         29.31304        35.88335         2.44355
O         33.28322        39.87331         1.16944
O         39.41996        33.54007        -2.97201
O         40.40212        28.04475        -3.26991
O         53.41715        41.91101         2.02387
O         53.70240        43.67947        -1.05964
O         37.92444        24.58768        -2.48368
O         35.33504        26.84827        -1.80830
O         43.55291        35.93566        -2.96366
O         48.91889        31.10943        -2.25155
O         45.55400        44.03128         1.53409
O         45.46493        32.33857        -2.87703
O         49.34001        32.31991         1.13095
O         40.49290        49.74912        -1.86165
O         44.98031        22.81102        -2.67053
O         53.06085        45.32491         2.11537
O         32.18595        43.86172        -2.37729
O         54.10295        34.02566        -0.46181
O         54.06882        32.83940         3.11145
O         40.96820        37.98033        -2.83521
O         29.69205        44.52662        -2.44391
H         30.49592        44.51769        -3.01697
O         38.98492        51.89724        -1.87585
H         39.36154        51.27210        -2.53709
O         31.42157        32.34851         2.86469
H         31.53267        31.62331         3.51405
O         38.45892        38.49517        -2.92885
H         39.27733        38.57876        -3.47436
O         30.19918        32.40947        -0.57876
H         30.08189        33.15571        -1.20354
O         38.46159        29.68471        -3.39217
H         38.92889        28.98219        -3.90668
O         48.19538        33.42233        -2.91974
H         48.82019        32.71205        -3.19703
O         45.48757        42.02703        -2.17282
H         46.20972        41.43333        -2.47214
O         46.71505        48.17450        -1.59120
H         46.71635        49.12150        -1.84868
O         45.28281        25.14291         1.37125
H         45.87353        25.52996         2.05152
H         28.05170        27.02991         3.73937
H         26.67097        29.07368         3.54336
H         26.42248        31.43111         2.88367
H         26.27934        33.29375         2.45515
H         26.04357        35.63078         1.89426
H         26.06934        37.65021         1.75904
H         25.96478        40.04876         1.34131
H         25.88255        41.90016         0.97451
H         25.89274        44.35346         0.82657
H         27.05713        46.46900         0.35434
H         30.15354        25.81801         3.23902
H         29.11540        47.69670        -0.11357
H         34.12454        23.93715         2.55573
H         32.10174        25.08676         3.25104
H         32.72337        49.87629        -0.61217
H         30.65526        48.65402        -0.60878
H         35.54875        22.89700         1.81691
H         34.37429        50.86839        -0.73257
H         37.37950        21.55286         0.87449
H         36.50279        52.08490        -0.65512
H         40.13033        19.09832        -1.70608
H         38.11625        20.35533        -0.95805
H         40.04234        53.69250         1.60974
H         37.98820        52.71316         0.71525
H         42.45126        19.06510        -2.40689
H         42.52174        53.87648         1.59368
H         44.58772        20.29890        -2.89271
H         44.71850        52.79317         1.31681
H         48.42178        22.58397         0.28155
H         46.90590        21.56135        -1.40744
H         48.51265        50.71734         1.11321
H         46.42230        51.95126         0.95504
H         49.39230        23.59349         1.92807
H         50.21377        49.84468         0.68784
H         51.37675        24.86170         2.58493
H         52.31518        48.59561         0.82399
H         55.21670        26.91728         3.04188
H         53.17809        25.65159         2.48158
H         55.65474        46.34187        -0.99427
H         53.83136        47.60769        -0.03414
H         56.42261        29.01763         3.26210
H         56.42125        31.49059         3.24529
H         56.80490        33.29938         2.30247
H         57.09432        35.54892         1.43555
H         57.21417        37.45886         1.00821
H         57.23900        39.89862         0.71772
H         57.06950        41.65030        -0.67103
H         56.96892        44.06609        -1.12597
