         430
 CSIRO Nanostructure Databank - Neutral Graphene Oxide Data Set
C         28.04970        27.42980         0.19909
C         27.91176        28.87731        -0.21273
C         26.73985        29.56744         0.43088
C         28.09851        31.50969         1.24524
C         26.80607        30.77158         1.00550
C         28.05134        33.01548         0.96101
C         26.81194        33.73032         1.18718
C         27.98475        35.87895         1.03839
C         26.75021        35.08189         1.14238
C         27.93944        37.37082         0.96736
C         26.67836        38.13983         0.79044
C         27.99293        40.16370         1.33019
C         26.71476        39.47614         0.88315
C         27.98875        41.66160         1.09833
C         26.81138        42.39580         1.34610
C         27.96162        44.48413         0.87578
C         26.78425        43.77461         1.21105
C         27.96361        45.90626         0.76640
C         30.29828        27.44798        -0.84816
C         29.18149        26.76804        -0.07045
C         30.42901        28.87690        -0.35809
C         29.23222        29.58478         0.02568
C         30.57908        31.59639         0.66615
C         29.28142        30.83645         0.58480
C         30.38705        32.99034         0.05587
C         29.19979        33.71888         0.64728
C         30.36903        35.87021         0.27750
C         29.22451        35.16906         0.62363
C         30.32082        37.35055        -0.05305
C         29.17040        38.10676         0.56551
C         30.41023        40.21596         0.45894
C         29.19670        39.46291         0.71884
C         30.40925        41.61940         0.51595
C         29.17434        42.34297         0.75727
C         30.38981        44.49245         0.42415
C         29.17724        43.76915         0.67279
C         30.37187        45.90914         0.35607
C         29.12719        46.59000         0.51011
C         32.79619        24.57266        -0.91938
C         31.61137        25.29263        -0.86451
C         32.84739        27.38594        -0.92376
C         31.61501        26.69679        -0.82708
C         32.88791        28.83478        -0.74586
C         31.67882        29.51464        -0.32382
C         32.91707        31.62818        -0.18579
C         31.74658        30.89712         0.02011
C         32.89430        33.07496        -0.07474
C         31.67644        33.77484         0.08603
C         32.85349        35.92412        -0.03977
C         31.63553        35.18328         0.07843
C         32.84911        37.36640         0.01901
C         31.63266        38.07672         0.13109
C         32.86011        40.21545         0.16496
C         31.62870        39.48885         0.23401
C         32.85647        41.64155         0.18111
C         31.62751        42.35298         0.31872
C         32.85300        44.49370         0.11538
C         31.62666        43.77549         0.28157
C         32.84358        45.93153         0.08090
C         31.61095        46.63635         0.16782
C         32.82677        48.74374        -0.04830
C         31.63928        48.05134         0.09284
C         35.33424        23.14958        -0.76572
C         35.27423        24.49944        -1.14597
C         34.04115        25.23438        -1.04334
C         35.32769        27.35180        -1.23791
C         34.05678        26.65907        -1.09052
C         35.27879        28.84660        -1.48970
C         34.07753        29.53938        -0.87543
C         35.31759        31.68479        -0.67894
C         34.12216        30.95243        -0.60089
C         35.32734        33.08641        -0.42689
C         34.10360        33.80224        -0.22506
C         35.32539        35.95057        -0.28200
C         34.09001        35.23060        -0.17861
C         35.32897        37.38197        -0.17686
C         34.08854        38.08102        -0.01788
C         35.31211        40.24111        -0.01795
C         34.08587        39.50468         0.05114
C         35.30138        41.64382        -0.07553
C         34.08296        42.36100         0.02555
C         35.32660        44.51750        -0.08386
C         34.07888        43.79193        -0.00623
C         35.32290        45.94148        -0.06322
C         34.07522        46.65141        -0.03157
C         35.32369        48.79191        -0.23366
C         34.07141        48.07089        -0.10274
C         35.35548        50.19593        -0.39393
C         37.72481        22.92982        -1.36337
C         36.46749        22.37147        -0.90102
C         37.78217        24.40906        -1.66984
C         36.45172        25.18151        -1.80762
C         37.78410        27.40736        -1.54635
C         36.50355        26.66432        -1.41879
C         37.78739        28.86577        -1.24894
C         36.58793        29.54643        -1.20637
C         37.84105        31.65836        -0.78084
C         36.55797        31.05182        -1.26310
C         37.82036        33.03453        -0.17371
C         36.55152        33.81344        -0.41982
C         37.82399        35.93971        -0.48768
C         36.54302        35.21024        -0.37668
C         37.83240        37.43658        -0.36449
C         36.54510        38.12636        -0.16101
C         37.80070        40.24991         0.09673
C         36.56243        39.52454        -0.04521
C         37.80955        41.65309         0.05027
C         36.57379        42.35889        -0.44866
C         37.78382        44.52484        -0.05990
C         36.55883        43.82916        -0.14481
C         37.79271        45.94843        -0.05958
C         36.55752        46.65381        -0.10571
C         37.79995        48.78862        -0.29959
C         36.55897        48.08519        -0.20272
C         37.79242        50.19427        -0.51363
C         36.55273        50.87188        -0.54961
C         40.05724        20.49122         0.50803
C         39.00685        20.96168        -0.23264
C         40.26264        23.06892        -0.77968
C         39.06500        22.21108        -1.00157
C         40.26022        24.42463        -0.90220
C         39.09264        25.14565        -1.47681
C         40.32417        27.38649        -1.07738
C         39.09607        26.65934        -1.49421
C         40.30576        28.82517        -1.09421
C         39.06143        29.54703        -1.16674
C         40.29437        31.72611        -0.91871
C         39.02529        30.96834        -0.92015
C         40.30949        33.13821        -0.50191
C         39.09272        33.81530        -0.36930
C         40.29395        35.93228        -0.09489
C         39.08841        35.21699        -0.26789
C         40.24707        37.35545         0.17728
C         39.07873        38.09303         0.07672
C         40.21439        40.22663         0.55187
C         39.05166        39.52738         0.29372
C         40.20154        41.70435         0.82351
C         38.99443        42.40056         0.25849
C         40.26852        44.52118         0.20383
C         39.02391        43.79823         0.11042
C         40.27177        45.94290         0.07050
C         39.04217        46.66060        -0.04918
C         40.28670        48.79194        -0.21452
C         39.04810        48.07827        -0.18385
C         40.27691        50.21482        -0.50591
C         39.04567        50.90109        -0.70358
C         40.26490        52.92982        -1.29132
C         39.07023        52.26368        -1.08793
C         42.47444        20.54361         1.02372
C         41.33258        21.12329         0.47397
C         42.70978        23.13841        -0.07622
C         41.52200        22.29742        -0.45729
C         42.71300        24.51509        -0.24571
C         41.38648        25.24122        -0.29152
C         42.72196        27.37640        -0.52914
C         41.48390        26.68642        -0.73368
C         42.74506        28.80096        -0.63128
C         41.54324        29.50136        -0.87999
C         42.80824        31.69062        -0.53829
C         41.59321        30.97122        -0.95457
C         42.78257        33.09384        -0.36558
C         41.54029        33.82988        -0.36043
C         42.77566        35.91774         0.15645
C         41.53074        35.22309        -0.07132
C         42.77213        37.33021         0.43957
C         41.48099        38.00174         0.65017
C         42.74735        40.23446         0.67001
C         41.47033        39.51442         0.82330
C         42.71343        41.68274         0.54204
C         41.51003        42.39364         0.50191
C         42.74632        44.54282         0.37343
C         41.50019        43.81544         0.34974
C         42.73136        45.96714         0.25978
C         41.51719        46.66326         0.09510
C         42.77154        48.79866        -0.16991
C         41.51640        48.10046        -0.05778
C         42.78789        50.30187        -0.20754
C         41.49291        50.91990        -0.65787
C         42.75010        52.93725        -1.32054
C         41.49542        52.26888        -1.07002
C         43.74207        21.13298         0.86799
C         45.14943        23.13321         0.31672
C         43.88763        22.43451         0.33899
C         45.16434        24.53655         0.06203
C         43.93740        25.24430        -0.13928
C         45.18819        27.37044        -0.21633
C         43.94585        26.66677        -0.28124
C         45.19731        28.80386        -0.27049
C         43.98896        29.51516        -0.43776
C         45.21534        31.65301        -0.10160
C         44.00080        30.95259        -0.37588
C         45.19900        33.05780         0.03599
C         43.99895        33.78709        -0.08111
C         45.24562        35.93782         0.19801
C         43.98864        35.21725         0.11537
C         45.24056        37.38716         0.42160
C         43.95137        38.06373         0.55647
C         45.23603        40.21661         0.35344
C         43.92685        39.50792         0.60844
C         45.17070        41.68495         0.64114
C         43.97121        42.40633         0.54462
C         45.27441        44.57198         0.72739
C         43.96136        43.83601         0.52409
C         45.26263        45.98771         0.22489
C         44.00271        46.75371         0.49668
C         45.23119        48.77083        -0.44958
C         43.98519        48.12879        -0.10700
C         45.21203        50.15541        -0.87786
C         44.01676        50.89218        -0.85843
C         43.94197        52.26081        -1.26711
C         47.58575        23.13137         0.42546
C         46.37910        22.46099         0.51316
C         47.63908        24.52512         0.18078
C         46.41217        25.23829         0.04163
C         47.67445        27.35842        -0.11427
C         46.41954        26.66054        -0.09223
C         47.68092        28.79743        -0.10778
C         46.44785        29.51038        -0.13255
C         47.68712        31.63050         0.11602
C         46.44894        30.92357        -0.01819
C         47.70723        33.03871         0.29611
C         46.42014        33.77551         0.53868
C         47.71626        35.95332         0.10781
C         46.43149        35.23389         0.14479
C         47.71011        37.47279         0.13206
C         46.41795        38.06181         0.63505
C         47.73724        40.19754         0.83032
C         46.40866        39.50754         1.07252
C         47.74692        41.67011         0.82681
C         46.44959        42.40882         0.73801
C         47.73234        44.49611         0.08511
C         46.41218        43.77414         0.09381
C         47.70148        45.88531        -0.15819
C         46.43542        46.61702        -0.13931
C         47.67134        48.66105        -0.86995
C         46.43660        48.03718        -0.46755
C         47.62039        50.03271        -1.29692
C         46.45112        50.73630        -1.31548
C         50.14301        24.55413         0.10383
C         48.89892        25.23038         0.04488
C         50.17900        27.35711        -0.48332
C         48.89239        26.64247        -0.11621
C         50.19431        28.80926        -0.08303
C         48.91798        29.51458        -0.03681
C         50.21462        31.65468        -0.06139
C         48.90989        30.90898         0.06009
C         50.16030        33.07806         0.41752
C         48.92395        33.72341         0.48951
C         50.10888        35.88274         1.15817
C         48.95212        35.20936         0.45854
C         50.10892        37.38980         1.01523
C         48.96090        38.06833         0.75029
C         50.20172        40.23389         0.72520
C         48.92961        39.52580         0.79380
C         50.16037        41.63241         0.33679
C         48.98368        42.35325         0.38250
C         50.18412        44.48238        -0.09309
C         48.94409        43.77467         0.09484
C         50.15899        45.88874        -0.29150
C         48.92895        46.57813        -0.38994
C         50.12697        48.50701        -1.35651
C         48.89293        47.95371        -0.83318
C         51.36528        25.24122         0.08335
C         52.68154        27.35496        -0.03343
C         51.43682        26.62312        -0.08390
C         52.65809        28.77553         0.06273
C         51.38550        29.46286         0.13226
C         52.66334        31.67338         0.33655
C         51.37463        30.91051         0.57738
C         52.64809        33.07876         0.41501
C         51.39268        33.80016         0.54260
C         52.61653        35.91032         0.86915
C         51.39826        35.18527         0.77309
C         52.60310        37.27391         1.27163
C         51.34205        38.11524         1.53885
C         52.61541        40.38155         0.94189
C         51.39200        39.58341         1.03042
C         52.65340        41.63813         0.31132
C         51.39839        42.26489        -0.22910
C         52.65356        44.44185        -0.33339
C         51.41110        43.76836        -0.13207
C         52.69368        45.84718        -0.52420
C         51.44693        46.68007        -0.30317
C         51.31885        47.88395        -1.20243
C         55.12059        27.40721        -0.04601
C         53.94149        26.69287        -0.05580
C         55.11394        28.82699         0.01898
C         53.87458        29.51971         0.10722
C         55.11523        31.68326         0.14681
C         53.88248        30.96494         0.19936
C         55.11288        33.11624         0.27507
C         53.88029        33.81430         0.43492
C         55.11108        35.93510         0.79447
C         53.87410        35.22572         0.68893
C         55.10138        37.29520         1.25310
C         53.84272        37.80244         1.63793
C         55.11275        40.38123         1.03244
C         53.85653        39.93318         1.46088
C         55.13551        41.65857         0.37278
C         53.89125        42.31958         0.12837
C         55.11441        44.35365        -0.55131
C         53.88342        43.69288        -0.30399
C         55.11024        45.74278        -0.83207
C         53.92716        46.47138        -0.77871
C         56.33278        29.56859        -0.01698
C         56.33213        30.94082         0.02850
C         56.32119        33.87966         0.27237
C         56.32123        35.23238         0.51108
C         56.26459        38.15780         1.32895
C         56.27230        39.53068         1.24356
C         56.34870        42.32143         0.00698
C         56.33851        43.61531        -0.44987
O         48.69932        35.55927        -0.95292
O         38.55411        27.14765        -2.77393
O         37.91194        36.79616        -1.69350
O         41.37995        38.61811         1.98949
O         47.12204        42.29052         2.03869
O         53.82449        38.94637         2.45878
O         41.01187        31.52457        -2.19459
O         38.46787        22.12220        -2.32107
O         38.67928        24.63541        -2.79092
O         28.13953        36.72690         2.28417
O         42.90281        50.68892         1.22886
H         42.91090        51.67023         1.25582
O         35.06152        28.95043        -2.93868
H         35.69468        28.34397        -3.37969
O         51.19926        38.16998         2.99420
H         52.02444        38.58744         3.33727
O         36.15945        25.20843        -3.23421
H         37.02970        25.32742        -3.68455
O         30.06588        37.36399        -1.51561
H         30.20491        38.28428        -1.82676
O         45.52660        40.11568        -1.07761
H         44.80608        40.56644        -1.56618
O         47.74889        37.91260        -1.26233
H         48.30573        37.25581        -1.74235
O         40.98043        25.35455         1.13128
H         41.70341        25.82008         1.60440
O         41.89277        21.68628        -1.74716
H         42.69137        21.13847        -1.59086
O         50.18884        27.35512        -1.96801
H         50.20520        26.41638        -2.25278
O         51.60225        47.21959         1.06480
H         50.77440        47.69992         1.28091
O         49.91443        35.63240         2.58310
H         50.39851        36.33946         3.07334
O         30.93011        31.81288         2.07442
H         31.29011        30.97082         2.42476
O         37.79116        32.77134         1.29100
H         37.74234        33.63899         1.74664
O         50.51516        31.72902        -1.49060
H         49.79405        32.23007        -1.92655
O         46.16397        39.57127         2.49827
H         46.36024        40.49625         2.78142
O         28.07837        39.98010         2.77474
H         28.11766        39.01326         2.94651
O         36.64388        42.27947        -1.92741
H         36.66563        41.32716        -2.16448
O         36.49488        31.41427        -2.69864
H         37.18290        30.89385        -3.16627
O         28.31498        31.43184         2.69107
H         29.21680        31.80373         2.85569
O         29.90638        27.48365        -2.25028
H         29.02881        27.94512        -2.29153
O         40.06146        41.82418         2.29116
H         40.71401        41.21374         2.69845
O         45.51281        44.64047         2.15567
H         44.96208        45.37891         2.50844
O         30.05928        32.77967        -1.35071
H         30.08316        33.65190        -1.79837
O         27.65654        28.90443        -1.65871
H         27.68821        29.84183        -1.94544
O         51.14964        30.91199         2.01529
H         51.90995        30.46525         2.44213
O         44.02245        46.99228         1.97412
H         43.35932        47.69368         2.16125
O         51.37282        41.96998        -1.68530
H         52.20131        42.33459        -2.06460
O         46.04055        43.57373        -1.30025
H         46.79472        43.15256        -1.76404
O         46.28798        33.78971         2.01524
H         45.43964        34.23380         2.23080
H         27.21734        26.94335         0.73025
H         25.76736        29.05725         0.34360
H         25.89322        31.19811         1.44775
H         25.89063        33.15832         1.36147
H         25.79848        35.60263         1.31858
H         25.74658        37.61039         0.54046
H         25.79944        40.06523         0.72448
H         25.89842        41.87213         1.66141
H         25.85363        44.33072         1.39411
H         27.01941        46.45278         0.90397
H         29.28431        25.71542         0.23330
H         29.09007        47.68528         0.44424
H         32.74810        23.47602        -0.94608
H         30.65983        24.74409        -0.85439
H         32.78801        49.83967        -0.10197
H         30.70551        48.62619         0.14487
H         34.43218        22.67011        -0.36016
H         34.42202        50.77313        -0.41899
H         36.40562        21.29741        -0.68429
H         36.52237        51.96052        -0.68786
H         39.94805        19.55254         1.07246
H         38.09037        20.35924        -0.29375
H         40.26592        53.97951        -1.61794
H         38.13074        52.80550        -1.25806
H         42.38650        19.59964         1.58211
H         42.72806        53.98896        -1.64019
H         44.61696        20.60909         1.27628
H         44.85665        52.78965        -1.56917
H         48.51320        22.55824         0.55579
H         46.38519        21.37900         0.70362
H         48.54373        50.53705        -1.61116
H         46.47187        51.78132        -1.65191
H         50.16951        23.46502         0.23797
H         50.08704        49.43490        -1.94478
H         52.28253        24.65919         0.25357
H         52.22287        48.33145        -1.64035
H         56.08456        26.88093        -0.10114
H         53.98164        25.59709        -0.12367
H         56.06341        46.25536        -1.02609
H         53.96838        47.56049        -0.91971
H         57.28319        29.02065        -0.09427
H         57.29333        31.47018        -0.01309
H         57.28317        33.37976         0.09680
H         57.27643        35.77495         0.52880
H         57.24945        37.66455         1.33610
H         57.26135        40.01250         1.19090
H         57.30628        41.79668         0.13069
H         57.28387        44.12320        -0.69041
