         640
 CSIRO Nanostructure Databank - Neutral Graphene Oxide Data Set
C         22.94697        27.49374         1.39109
C         23.00194        28.84852         1.30959
C         23.01027        31.79564         1.00957
C         23.02118        33.16473         0.98814
C         23.12374        36.08940         1.20901
C         23.09573        37.43145         1.10874
C         23.10144        40.42774         1.02653
C         23.10689        41.77197         0.91379
C         23.20073        44.72454         0.93810
C         23.27552        46.05209         1.16036
C         25.39635        24.57278         1.46683
C         24.21343        25.25366         1.50510
C         25.43022        27.41748         0.92202
C         24.12066        26.66466         1.09348
C         25.44013        28.89310         0.95381
C         24.22159        29.58652         1.02664
C         25.42102        31.69154         0.57127
C         24.22267        31.01908         0.86771
C         25.36747        33.13473         0.11785
C         24.20958        33.91147         0.69779
C         25.47873        36.01932         0.43535
C         24.26018        35.30464         0.75102
C         25.50077        37.43807         0.40712
C         24.18859        38.20666         0.41799
C         25.51039        40.34985         0.34898
C         24.36777        39.61298         1.01813
C         25.48285        41.73569         0.25111
C         24.32282        42.51564         0.63002
C         25.61684        44.61842         0.38439
C         24.37670        43.91393         0.66034
C         25.69718        46.02267         0.52713
C         24.59494        46.76503         1.24397
C         25.59454        48.85106         0.32686
C         24.51626        48.20503         0.81460
C         27.96694        23.10203         1.32689
C         27.90506        24.53047         1.20676
C         26.67196        25.21298         1.26052
C         27.97624        27.44348         1.09852
C         26.67191        26.68418         1.27678
C         27.91586        28.86767         0.70092
C         26.67984        29.57929         0.75895
C         27.88187        31.68252         0.24475
C         26.65895        30.99043         0.51767
C         27.88860        33.12760         0.11512
C         26.68288        33.85918         0.21424
C         27.92425        35.98328         0.07938
C         26.69297        35.27769         0.23920
C         27.94749        37.41285         0.09562
C         26.71018        38.13894         0.25103
C         27.92232        40.25009        -0.14327
C         26.72130        39.59457         0.11516
C         27.93768        41.65991        -0.50983
C         26.62830        42.45861        -0.31746
C         27.96416        44.56637        -0.37143
C         26.74645        43.90602        -0.10476
C         28.01247        45.99769        -0.31831
C         26.84718        46.72236         0.09832
C         28.00260        48.85634        -0.34447
C         26.85219        48.16615         0.05410
C         28.03089        50.30414        -0.43276
C         30.35567        23.06184         0.80100
C         29.13258        22.40555         1.15700
C         30.35118        24.47997         0.71509
C         29.14967        25.23706         0.94244
C         30.36151        27.34699         0.43369
C         29.17336        26.64792         0.82295
C         30.34836        28.79818         0.26581
C         29.10957        29.53501         0.37867
C         30.33239        31.65651        -0.02911
C         29.09767        30.95958         0.18102
C         30.33873        33.07511        -0.19205
C         29.11888        33.81541        -0.08461
C         30.33925        35.96237        -0.36142
C         29.13541        35.25782        -0.12845
C         30.37187        37.37910        -0.34595
C         29.17921        38.09199        -0.07722
C         30.43520        40.26691        -0.42395
C         29.23286        39.57580         0.16650
C         30.42631        41.67662        -0.57430
C         29.20003        42.41124        -0.52671
C         30.41074        44.52673        -0.79049
C         29.18376        43.81778        -0.59918
C         30.41192        45.95460        -0.90872
C         29.20307        46.69296        -0.65299
C         30.34294        48.81922        -1.14969
C         29.21385        48.13565        -0.69718
C         30.33256        50.30335        -1.41084
C         29.09703        50.98274        -0.90584
C         32.86478        20.23704         0.50768
C         31.66375        20.93672         0.72827
C         32.71117        23.00456        -0.14051
C         31.55244        22.31122         0.52965
C         32.75755        24.48327         0.11952
C         31.58439        25.18117         0.40917
C         32.78895        27.31065        -0.06501
C         31.54640        26.61901         0.30358
C         32.79273        28.78855        -0.20290
C         31.52771        29.50349         0.00277
C         32.79878        31.61786        -0.23425
C         31.55204        30.93029        -0.08816
C         32.78351        33.03769        -0.34171
C         31.58021        33.74988        -0.37606
C         32.84744        35.93695        -0.61740
C         31.54905        35.19735        -0.82110
C         32.84239        37.39817        -0.71230
C         31.61832        38.09946        -0.58313
C         32.86418        40.23771        -0.84067
C         31.63351        39.53439        -0.62268
C         32.88157        41.66881        -0.85698
C         31.64939        42.38566        -0.78731
C         32.86224        44.51588        -1.06752
C         31.63476        43.80760        -0.90017
C         32.84810        45.93409        -1.24095
C         31.60985        46.63036        -1.21043
C         32.86653        48.80386        -1.30334
C         31.57358        48.07913        -1.61360
C         32.85109        50.20209        -1.06063
C         31.60625        50.89662        -0.86027
C         32.81640        52.78412         0.09685
C         31.64670        52.08864        -0.07984
C         35.41881        18.74442         0.29620
C         35.34186        20.14714         0.12970
C         34.07517        20.88501         0.19934
C         35.23873        23.03081        -0.11471
C         34.04931        22.30718         0.03761
C         35.28415        24.45666        -0.14656
C         33.99451        25.20937        -0.37682
C         35.32187        27.36313        -0.03804
C         34.06325        26.59242         0.27938
C         35.30935        28.76708        -0.14043
C         34.07736        29.51252        -0.15945
C         35.30815        31.58760        -0.71916
C         34.04541        30.89983        -0.26369
C         35.33305        33.06477        -0.48725
C         34.06653        33.79131        -0.12209
C         35.29082        35.92535        -0.78504
C         34.00965        35.23251        -0.55651
C         35.36232        37.40969        -0.53756
C         34.05984        38.11063        -0.81862
C         35.35515        40.21721        -1.04818
C         34.09584        39.52018        -0.92990
C         35.36923        41.66202        -1.01628
C         34.11159        42.37641        -0.92249
C         35.31865        44.52832        -1.08404
C         34.09958        43.80509        -1.01792
C         35.30191        45.91830        -1.28663
C         34.08700        46.64158        -1.37799
C         35.30116        48.82158        -1.18940
C         34.08864        48.09873        -1.35243
C         35.29631        50.21186        -0.91895
C         34.07130        50.90431        -0.86501
C         35.33480        53.02653        -0.32971
C         34.01726        52.40370        -0.73279
C         35.37588        54.42798         0.01181
C         37.84418        18.75043        -0.06272
C         36.62554        18.07114         0.17751
C         37.80324        20.16822        -0.18406
C         36.54971        20.83392        -0.14169
C         37.78481        23.04712        -0.33305
C         36.49019        22.28513        -0.35783
C         37.74374        24.44670         0.16807
C         36.47761        25.18907        -0.01882
C         37.79796        27.32868         0.12139
C         36.52960        26.62331         0.00029
C         37.79537        28.77653         0.04073
C         36.57508        29.48166        -0.15623
C         37.79893        31.60822        -0.22993
C         36.57776        30.88480        -0.29999
C         37.78165        33.04351        -0.29086
C         36.54903        33.72832        -0.44252
C         37.80271        35.98244        -0.45062
C         36.58073        35.18965        -0.67007
C         37.83933        37.32840        -0.73937
C         36.58109        38.02751        -1.23932
C         37.82898        40.18093        -1.06683
C         36.59704        39.52169        -1.03876
C         37.83762        41.62021        -1.49178
C         36.57744        42.35307        -1.10330
C         37.85600        44.54318        -1.09697
C         36.60011        43.80684        -0.72511
C         37.85204        45.92430        -1.12796
C         36.58677        46.63231        -1.41859
C         37.82274        48.82389        -0.91801
C         36.59231        48.14867        -1.35447
C         37.76019        50.18042        -0.56277
C         36.54429        50.89396        -0.64582
C         37.80928        53.00738        -0.27217
C         36.53164        52.31250        -0.40271
C         37.79429        54.49302        -0.54508
C         36.53873        55.12632         0.00749
C         40.36348        15.95791        -0.43933
C         39.17041        16.63017        -0.21512
C         40.31975        18.77943        -0.39953
C         39.10661        18.04151        -0.21073
C         40.30827        20.20592        -0.39330
C         39.04958        20.92019        -0.29105
C         40.27602        23.10794        -0.36586
C         39.04568        22.30431        -0.22981
C         40.32099        24.51135         0.06290
C         39.03966        25.18743         0.36437
C         40.27078        27.36496         0.66041
C         38.99588        26.65120         0.31283
C         40.28338        28.80512         0.23402
C         39.03474        29.49756         0.05504
C         40.31361        31.64937        -0.32260
C         39.02462        30.90045        -0.09824
C         40.26482        33.05764         0.23776
C         38.96474        33.79959         0.17471
C         40.26272        36.01268        -0.03076
C         38.94140        35.33362         0.28421
C         40.29309        37.38054        -0.31231
C         39.06298        38.08187        -0.60869
C         40.30663        40.20926        -0.80700
C         39.06756        39.48062        -0.84914
C         40.29758        41.65067        -0.94339
C         39.10852        42.34410        -1.15939
C         40.35177        44.50881        -0.96263
C         39.12447        43.81376        -1.45974
C         40.28215        45.94019        -0.52035
C         39.05415        46.68702        -0.96863
C         40.28202        48.80277        -0.52927
C         39.04268        48.08203        -0.82033
C         40.26204        50.15164        -0.21338
C         38.95307        50.82913         0.10426
C         40.24877        53.02390         0.10961
C         38.98875        52.32573        -0.08998
C         40.23489        54.44539         0.15531
C         39.06983        55.18940        -0.13041
C         40.32954        57.29334        -0.05737
C         39.11825        56.59071        -0.20080
C         42.78680        15.99180        -0.96760
C         41.56534        16.66650        -0.66872
C         42.76443        18.81805        -0.85600
C         41.55292        18.09206        -0.62346
C         42.73744        20.23141        -0.77627
C         41.52956        20.90553        -0.54949
C         42.83249        23.10041        -0.30559
C         41.56252        22.38748        -0.59164
C         42.81657        24.49633         0.00106
C         41.53696        25.20119         0.11117
C         42.75500        27.32608         0.35302
C         41.54167        26.62061         0.30145
C         42.72666        28.75103         0.47680
C         41.51231        29.48765         0.31155
C         42.70587        31.66516         0.31844
C         41.55110        30.93077         0.16506
C         42.71501        33.11727         0.15673
C         41.53954        33.81209         0.20293
C         42.80479        36.03953         0.18164
C         41.49293        35.29212         0.30774
C         42.77726        37.45327        -0.21455
C         41.54996        38.11123        -0.38592
C         42.78427        40.24171        -0.65412
C         41.53977        39.52884        -0.62921
C         42.78175        41.67143        -0.76342
C         41.55443        42.36440        -0.87575
C         42.80219        44.51418        -0.83078
C         41.54867        43.80572        -0.87222
C         42.77082        45.96728        -1.02414
C         41.54255        46.71353        -0.79917
C         42.78214        48.81072        -0.39265
C         41.54440        48.09293        -0.64983
C         42.70919        50.17224         0.02249
C         41.48491        50.87203         0.04065
C         42.72928        53.00581         0.41206
C         41.46242        52.29525         0.26199
C         42.74581        54.43245         0.45088
C         41.45332        55.17667         0.65975
C         42.76785        57.28981         0.28175
C         41.50965        56.62258         0.23889
C         43.94075        16.69315        -1.23558
C         45.18577        18.85469        -1.42328
C         43.97797        18.11674        -1.19391
C         45.19713        20.26102        -1.26117
C         43.92623        21.05917        -1.19932
C         45.28599        23.01599        -0.19669
C         44.03011        22.40546        -0.48581
C         45.29066        24.41405         0.27404
C         44.03922        25.16465         0.24503
C         45.20684        27.34130         0.60858
C         44.02753        26.61545         0.41126
C         45.25474        28.78035         0.68697
C         43.95894        29.47202         0.78597
C         45.23983        31.68081         0.56578
C         43.95628        31.00547         0.75388
C         45.21565        33.18583         0.61144
C         44.03762        33.78055        -0.15513
C         45.24269        35.97032        -0.09345
C         44.04766        35.28644        -0.01090
C         45.25248        37.41462        -0.21796
C         44.02818        38.12823        -0.34701
C         45.26575        40.25114        -0.57834
C         44.02868        39.54895        -0.54239
C         45.25947        41.68619        -0.65476
C         44.02670        42.39021        -0.71605
C         45.27418        44.55100        -0.64353
C         44.02349        43.82723        -0.76412
C         45.30254        45.95217        -0.55703
C         44.10567        46.74631        -0.84919
C         45.24207        48.78937         0.01132
C         44.02135        48.13240        -0.40151
C         45.21011        50.11452         0.40739
C         43.90340        50.80867         0.67921
C         45.19255        52.99481         0.55450
C         43.94542        52.30418         0.49563
C         45.20337        54.42465         0.47375
C         43.95832        55.14193         0.45492
C         43.93645        56.58784         0.42498
C         47.58605        18.89548        -1.95725
C         46.43837        18.20052        -1.74140
C         47.64225        20.34819        -1.75893
C         46.40197        20.97896        -1.23154
C         47.76451        22.59067        -0.12745
C         46.44669        22.23646        -0.55971
C         47.74794        24.58058         0.75448
C         46.45189        25.14809         0.62374
C         47.72712        27.34411         0.68847
C         46.44295        26.60350         1.01026
C         47.75665        28.82216         1.00232
C         46.44069        29.51847         0.71515
C         47.67316        31.68635         0.32927
C         46.43925        30.96998         0.59750
C         47.71327        33.09592         0.16181
C         46.50641        33.85446         0.19380
C         47.73474        35.95786        -0.11700
C         46.50441        35.23512        -0.04393
C         47.73176        37.38695        -0.20246
C         46.49356        38.10820        -0.28314
C         47.74895        40.21307        -0.47857
C         46.50679        39.53003        -0.45171
C         47.78255        41.66512        -0.87131
C         46.49303        42.40796        -0.62595
C         47.75053        44.52925        -0.41445
C         46.50443        43.80758        -0.55720
C         47.75025        45.92943        -0.26227
C         46.51347        46.66453        -0.27599
C         47.73876        48.76070         0.16709
C         46.49967        48.05423        -0.04543
C         47.72393        50.13091         0.50627
C         46.44098        50.79723         0.93332
C         47.64667        52.98710         0.73449
C         46.43130        52.29108         0.68368
C         47.63720        54.40360         0.59348
C         46.45542        55.09644         0.47109
C         50.31153        20.42178        -1.62795
C         48.99599        21.09497        -1.62243
C         50.17622        23.09622        -0.54488
C         48.94833        22.26904        -0.73173
C         50.16372        24.52252         0.00808
C         48.94078        25.23428         0.48592
C         50.20297        27.38898         0.62234
C         48.90865        26.67395         0.50889
C         50.18600        28.84106         0.33382
C         48.96818        29.49776         0.39694
C         50.21627        31.67238        -0.15062
C         48.87676        30.90768         0.02378
C         50.20226        33.12848         0.00518
C         48.96247        33.81266         0.00353
C         50.20262        35.95806        -0.00615
C         48.96457        35.24246        -0.04055
C         50.20298        37.38388        -0.05927
C         48.96556        38.09564        -0.18129
C         50.21731        40.24105        -0.18888
C         48.96600        39.52373        -0.29189
C         50.21463        41.67751        -0.18493
C         49.00895        42.39326        -0.38279
C         50.21763        44.52545        -0.16311
C         48.98691        43.80116        -0.31370
C         50.20630        45.94423        -0.19896
C         48.98879        46.65104        -0.16288
C         50.22341        48.77107         0.23599
C         48.98207        48.07190         0.02571
C         50.19270        50.16672         0.56916
C         48.93860        50.85091         0.65302
C         50.12167        52.93186         1.11686
C         48.90922        52.26416         0.86492
C         51.42231        21.00329        -1.09820
C         52.65026        23.05655        -0.36468
C         51.46538        22.37405        -0.61992
C         52.63796        24.47445        -0.02073
C         51.47916        25.15814         0.27062
C         52.71166        27.38977         0.27024
C         51.49665        26.61700         0.58321
C         52.68256        28.78950         0.09798
C         51.43713        29.52488         0.13168
C         52.67914        31.65421         0.17783
C         51.46615        30.93648         0.06203
C         52.67652        33.09744         0.20080
C         51.43264        33.82195         0.10616
C         52.66854        35.96380         0.21889
C         51.43723        35.24995         0.11155
C         52.66670        37.38693         0.19524
C         51.43647        38.09692         0.02983
C         52.66218        40.24662         0.19307
C         51.42975        39.52991        -0.00655
C         52.64172        41.64807         0.26801
C         51.43769        42.39235         0.06321
C         52.66722        44.58071         0.15923
C         51.43773        43.81569         0.03128
C         52.71036        45.93145        -0.05808
C         51.47848        46.70271        -0.44752
C         52.68963        48.78451         0.37687
C         51.46075        48.10672         0.10702
C         52.66426        50.16874         0.74463
C         51.40362        50.87128         0.81140
C         51.33221        52.25329         1.11529
C         55.11970        23.02953        -0.35006
C         53.94102        22.37411        -0.33896
C         55.14877        24.52079        -0.58615
C         53.95806        25.15217         0.11641
C         55.20682        27.36940        -0.15733
C         53.98600        26.68719         0.23250
C         55.15994        28.82374        -0.52769
C         53.90382        29.51657        -0.06102
C         55.15519        31.62546         0.20831
C         53.92172        30.92328         0.11762
C         55.12809        33.04026         0.72128
C         53.88131        33.80797         0.35452
C         55.12745        35.94429         0.52942
C         53.90175        35.23472         0.37097
C         55.13413        37.37713         0.53227
C         53.90286        38.10572         0.34911
C         55.14292        40.23261         0.52535
C         53.90449        39.52075         0.36461
C         55.16218        41.64547         0.60902
C         53.87510        42.36141         0.64661
C         55.19085        44.55698         0.50713
C         53.89001        43.86596         0.59104
C         55.21424        45.93570         0.32529
C         54.01271        46.67883        -0.20120
C         55.14821        48.79070         0.53986
C         53.94551        48.10814         0.29391
C         55.09519        50.15940         0.91312
C         53.88987        50.82427         1.01091
C         57.68728        24.56929        -0.32951
C         56.45310        25.23421        -0.27403
C         57.66708        27.39060        -0.18906
C         56.43028        26.66075        -0.19247
C         57.65527        28.82501        -0.09799
C         56.42718        29.54165        -0.13432
C         57.64085        31.65596         0.24852
C         56.39760        30.93446         0.11198
C         57.62813        33.08927         0.38490
C         56.40069        33.80112         0.47261
C         57.61631        35.91143         0.66764
C         56.38537        35.20794         0.56743
C         57.59201        37.35225         1.10787
C         56.34663        38.09431         0.70429
C         57.61249        40.22977         0.79453
C         56.37280        39.50517         0.67025
C         57.61934        41.65089         0.79103
C         56.37615        42.37005         0.72547
C         57.63592        44.50980         0.72796
C         56.39558        43.80850         0.69429
C         57.64833        45.93639         0.65569
C         56.43330        46.65776         0.47359
C         57.66269        48.75954         0.57458
C         56.43100        48.08377         0.49447
C         58.88916        25.26787        -0.25058
C         60.11866        27.41544        -0.08023
C         58.89566        26.68314        -0.18165
C         60.10804        28.78363         0.04080
C         58.88777        29.52464         0.04273
C         60.08697        31.71017         0.19103
C         58.87219        30.96187         0.16378
C         60.08032        33.07788         0.29779
C         58.86052        33.80485         0.40658
C         60.06993        35.97645         0.67986
C         58.84530        35.22758         0.59266
C         60.07145        37.35029         0.75393
C         58.87004        38.09922         0.83234
C         60.07751        40.25886         0.86781
C         58.85870        39.51089         0.83769
C         60.07624        41.62652         0.89317
C         58.85870        42.37097         0.85337
C         60.08950        44.54724         0.91707
C         58.87173        43.79711         0.83997
C         60.09677        45.91765         0.87575
C         58.87864        46.65298         0.73629
C         58.86356        48.06195         0.66871
O         37.11987        22.78600        -1.60675
O         43.84135        30.27823         2.02251
O         53.70743        43.17476         1.87825
O         49.44246        31.20350        -1.29859
O         48.25579        21.11090        -2.87164
O         47.84257        23.24122         1.10353
O         24.72688        26.88886        -0.24009
O         36.69990        47.42623        -2.63912
O         39.48001        33.20535         1.45085
O         38.30740        24.56770         1.51857
O         50.87707        27.00942         1.88132
O         32.76093        27.87686        -1.42228
O         42.18167        35.79868         1.51184
O         27.05308        42.00049        -1.63294
O         43.54220        46.45808        -2.16682
O         50.09228        24.26086        -1.46229
O         40.85452        22.94278        -1.76031
O         54.20452        25.74057         1.38100
O         27.37399        27.23320         2.43682
O         35.95197        35.46011        -2.01133
O         57.51461        37.27635         2.59552
H         58.34635        36.85313         2.89976
O         31.41657        35.12816        -2.28920
H         30.56228        34.68848        -2.48732
O         38.71465        35.64439         1.69282
H         39.23955        34.98864         2.21075
O         45.00408        33.52567         2.01396
H         45.59465        32.96833         2.56258
O         40.27619        27.40113         2.14815
H         41.05349        27.93578         2.42131
O         39.18547        43.91584        -2.94274
H         38.66652        43.15494        -3.30830
O         37.70673        54.65112        -2.00310
H         36.88089        54.20635        -2.29320
O         54.24780        46.77370        -1.65335
H         53.39183        47.07493        -2.05160
O         23.78129        38.40434        -0.96361
H         23.72419        37.52408        -1.39052
O         47.92253        41.64562        -2.35126
H         47.86030        42.57497        -2.66017
O         40.18335        45.86885         0.95842
H         40.04430        46.78390         1.28604
O         24.74951        39.40000         2.41264
H         24.80215        40.27781         2.84563
O         32.44280        22.90510        -1.59498
H         33.02761        23.57230        -2.03325
O         46.40456        26.59523         2.49424
H         46.66526        27.50328         2.79122
O         31.52383        48.07934        -3.09014
H         31.31346        49.01216        -3.35441
O         41.28113        55.22594         2.13997
H         40.48613        55.77420         2.31407
O         35.60258        37.59321         0.88802
H         34.85349        37.20162         1.38386
O         34.04571        26.40493         1.71926
H         34.91208        26.03318         1.99057
O         43.66875        50.62118         2.15029
H         43.43104        49.67842         2.28635
O         33.87114        25.33929        -1.82392
H         33.35857        26.15805        -2.02475
O         36.62303        43.82961         0.76898
H         35.87589        43.27102         1.07536
O         43.66806        21.41110        -2.60738
H         42.81670        21.90129        -2.64422
O         46.39679        50.64172         2.40243
H         45.45924        50.82210         2.66894
O         35.27752        31.43896        -2.20074
H         35.20616        30.47941        -2.39567
O         37.81162        41.56066        -3.00670
H         37.13816        40.88904        -3.25759
O         25.08981        33.05745        -1.34113
H         24.24976        32.56004        -1.44267
O         29.40803        39.73199         1.63851
H         28.68494        39.22539         2.06791
O         33.76653        52.95505        -2.08808
H         32.96561        52.50306        -2.43267
O         55.10334        28.87316        -2.02219
H         55.16725        29.81605        -2.28574
O         24.96236        46.78543         2.67250
H         25.81935        47.25724         2.74228
O         40.45777        31.82313        -1.77401
H         40.43563        30.93379        -2.18645
O         38.75695        50.60553         1.55069
H         37.97264        51.12834         1.82249
O         55.06031        32.90274         2.20276
H         55.07680        33.81043         2.57613
O         30.37135        50.52900        -2.88876
H         29.47553        50.32575        -3.23469
O         47.91665        28.92951         2.47257
H         48.77218        28.50309         2.70265
O         34.16448        33.89821         1.36372
H         33.26201        34.06134         1.71342
O         54.90567        24.73268        -2.01010
H         55.67781        24.39223        -2.50791
O         36.47894        37.90387        -2.67598
H         36.36063        36.94220        -2.88224
O         51.53999        46.87975        -1.93504
H         51.34051        46.00571        -2.33526
O         44.29117        33.48407        -1.56161
H         43.52622        33.79405        -2.08990
H         22.02016        26.99722         1.71539
H         22.08520        29.41482         1.52332
H         22.06233        31.28426         1.22033
H         22.08455        33.69707         1.20471
H         22.27154        35.57047         1.67001
H         22.20982        37.97372         1.46909
H         22.14914        39.91741         1.23070
H         22.15800        42.31813         1.01041
H         22.21417        44.23981         0.94210
H         22.36243        46.63239         1.36154
H         25.37928        23.49516         1.68388
H         23.28784        24.72932         1.78506
H         25.51039        49.92122         0.09107
H         23.58082        48.75396         1.00134
H         27.05126        22.54339         1.56268
H         27.14740        50.87341        -0.11205
H         29.11274        21.31179         1.25442
H         29.04561        52.07769        -0.99881
H         32.85392        19.15026         0.66706
H         30.80546        20.36046         1.10243
H         32.81919        53.70521         0.69687
H         30.71825        52.46622         0.37449
H         34.51190        18.15932         0.49951
H         34.43561        54.93542         0.27366
H         36.62099        16.97880         0.29138
H         36.53476        56.19752         0.25680
H         40.37632        14.85865        -0.46021
H         38.25815        16.03803        -0.06277
H         40.35240        58.37644        -0.24848
H         38.21488        57.15009        -0.47906
H         42.79101        14.89274        -1.00316
H         42.79280        58.38318         0.16002
H         44.85150        16.13090        -1.48152
H         44.88198        57.14429         0.45212
H         48.49243        18.37233        -2.29379
H         46.45107        17.11141        -1.88421
H         48.58331        54.96079         0.58119
H         46.49719        56.18893         0.37476
H         50.39229        19.42611        -2.08816
H         50.12550        54.00931         1.32974
H         52.36745        20.44244        -1.14140
H         52.24715        52.82096         1.32921
H         56.05794        22.45886        -0.29628
H         53.94361        21.27693        -0.26142
H         56.02102        50.70454         1.13982
H         53.89764        51.88162         1.30604
H         57.72079        23.47492        -0.42788
H         57.69281        49.85753         0.55662
H         59.84345        24.72234        -0.25828
H         61.07141        26.86640        -0.07459
H         61.06707        29.30808         0.14412
H         61.05262        31.19495         0.10972
H         61.04137        33.60766         0.30071
H         61.03400        35.45648         0.62215
H         61.03949        37.86756         0.71371
H         61.04115        39.73473         0.90000
H         61.03956        42.15043         0.93559
H         61.04844        44.02258         1.01899
H         61.04672        46.46772         0.94169
H         59.81394        48.61291         0.71657
