         732
 CSIRO Nanostructure Databank - Neutral Graphene Oxide Data Set
C         23.02811        24.41508         0.35485
C         21.88504        25.10803         0.71802
C         22.95245        27.27073         0.33353
C         21.86514        26.52607         0.74765
C         22.97880        28.71888         0.43564
C         21.78254        29.44813         0.66913
C         23.00168        31.55697         0.70412
C         21.78947        30.82223         0.77223
C         23.01970        32.99969         0.78491
C         21.82577        33.75578         0.92048
C         23.04904        35.85785         0.74818
C         21.83982        35.13532         0.93135
C         23.06610        37.32246         0.64480
C         21.90789        38.06588         0.86337
C         23.05372        40.21994         0.67234
C         21.91733        39.48108         0.92652
C         23.09276        41.66480         0.81760
C         21.89178        42.40035         0.95999
C         23.12682        44.49284         1.15082
C         21.91073        43.77345         1.10183
C         23.11675        45.93744         1.31357
C         21.91116        46.65926         1.41955
C         23.11773        48.74475         1.62554
C         21.91756        48.04446         1.57865
C         25.46060        22.97231        -0.42002
C         25.40609        24.40103        -0.34966
C         24.20061        25.08920        -0.05975
C         25.41566        27.29929        -0.21085
C         24.10300        26.57274        -0.35503
C         25.43525        28.69253         0.05803
C         24.20165        29.42583         0.33273
C         25.46525        31.57018         0.60442
C         24.22070        30.84446         0.52029
C         25.49567        32.95315         0.70032
C         24.25622        33.69963         0.70146
C         25.48124        35.84032         0.27138
C         24.24170        35.12624         0.63447
C         25.50300        37.32210         0.28343
C         24.30230        38.02014         0.40096
C         25.55597        40.25121         0.43414
C         24.26955        39.51546         0.13205
C         25.56481        41.60440         0.66416
C         24.33147        42.35856         0.84034
C         25.60247        44.50410         1.15505
C         24.35884        43.77975         1.03902
C         25.59255        45.92649         1.31998
C         24.35032        46.64801         1.37113
C         25.60893        48.78819         1.52369
C         24.35306        48.06784         1.51910
C         25.64752        50.20846         1.54659
C         27.84495        23.00655        -0.95971
C         26.61834        22.30576        -0.72590
C         27.81231        24.43809        -0.86236
C         26.62870        25.12778        -0.58081
C         27.83697        27.29965        -0.41195
C         26.61537        26.58984        -0.41993
C         27.86468        28.68581        -0.19985
C         26.66641        29.38542         0.05118
C         28.02651        31.52252         0.57808
C         26.72190        30.79013         0.54241
C         28.15628        32.99876         0.97322
C         26.75163        33.74656         1.05862
C         28.02207        35.86264         0.36691
C         26.76989        35.08352         0.32362
C         27.96830        37.28856         0.36991
C         26.76985        37.99931         0.27920
C         28.02888        40.12107         0.73914
C         26.82125        39.50643         0.05296
C         28.03506        41.56720         1.03800
C         26.85946        42.39499         0.52213
C         28.05525        44.44765         1.35597
C         26.85113        43.79440         1.11617
C         28.05500        45.89047         1.61244
C         26.80951        46.64480         1.45723
C         28.08350        48.79535         1.37605
C         26.83790        48.06971         1.48680
C         28.08054        50.22567         1.32725
C         26.83304        50.90227         1.46204
C         30.26521        20.23111        -1.71249
C         29.10521        20.90283        -1.46293
C         30.32865        23.03315        -1.19409
C         29.06289        22.32118        -1.23019
C         30.35285        24.45521        -1.08233
C         29.05738        25.21311        -1.22787
C         30.41043        27.29024        -0.58582
C         29.10810        26.55031        -0.52473
C         30.40693        28.75740        -0.60624
C         29.11674        29.44199        -0.46305
C         30.46091        31.61560        -0.25667
C         29.16348        30.91687        -0.18168
C         30.41819        33.06087        -0.18084
C         29.25371        33.73496         0.20508
C         30.42507        35.91154        -0.16777
C         29.23099        35.16676         0.20301
C         30.41890        37.28825        -0.06529
C         29.29647        37.95297         0.67338
C         30.51488        40.15662         0.38079
C         29.31395        39.43882         0.56770
C         30.56697        41.59253         0.63082
C         29.36142        42.24807         1.19069
C         30.65499        44.45687         1.12368
C         29.36221        43.72878         1.40030
C         30.64833        45.95709         1.13199
C         29.38257        46.67189         1.48893
C         30.50975        48.79757         0.89404
C         29.31370        48.11047         1.20304
C         30.52406        50.22088         0.95177
C         29.31026        50.93238         1.17225
C         30.51667        53.05646         1.12981
C         29.34845        52.38327         1.12987
C         32.94412        18.68375        -1.57467
C         32.89363        20.16265        -1.57077
C         31.56029        20.92089        -1.67742
C         32.78729        23.01956        -0.80584
C         31.54052        22.33016        -1.27702
C         32.84545        24.47367        -1.18054
C         31.58288        25.18351        -1.17746
C         32.78084        27.36861        -1.39342
C         31.58447        26.59046        -1.11793
C         32.83574        28.80110        -1.06967
C         31.58478        29.47885        -0.79222
C         32.80561        31.64806        -1.16659
C         31.58208        30.92221        -0.67247
C         32.83371        33.09485        -0.76107
C         31.63114        33.78345        -0.52286
C         32.83265        35.90753        -0.77051
C         31.62971        35.20747        -0.52932
C         32.81695        37.35796        -0.97551
C         31.51380        38.10088        -0.57353
C         32.77087        40.30180        -0.76148
C         31.62369        39.50058        -0.19766
C         32.99877        41.54482         0.10511
C         31.72561        42.31532         0.37287
C         32.89299        44.47082        -0.00587
C         31.77412        43.74209         0.46179
C         32.75413        45.95101        -0.35171
C         31.70661        46.70010         0.42926
C         32.90800        48.83440         0.14988
C         31.71020        48.08548         0.48665
C         32.93378        50.25126         0.38754
C         31.76788        50.91619         0.79547
C         32.97914        53.15302         0.71917
C         31.82916        52.33680         1.30166
C         33.21731        54.38204         1.55675
C         35.30021        18.64701        -0.79737
C         34.06607        17.99335        -1.30231
C         35.29010        20.15401        -0.68881
C         34.07806        20.90210        -1.07613
C         35.31535        23.01043        -0.81363
C         34.08371        22.27592        -1.00235
C         35.31001        24.42058        -0.89070
C         34.06707        25.12770        -1.15152
C         35.34949        27.31907        -1.10378
C         34.12705        26.57328        -1.41288
C         35.32397        28.73420        -1.03025
C         34.07729        29.47303        -1.01974
C         35.26798        31.63368        -0.70403
C         34.09405        30.91388        -0.89977
C         35.30822        33.07339        -0.72804
C         34.07098        33.79319        -0.76949
C         35.30904        35.94483        -0.85615
C         34.07097        35.21888        -0.77446
C         35.28747        37.36862        -0.98401
C         34.08675        38.10229        -0.96949
C         35.25908        40.26514        -1.01300
C         34.07334        39.52194        -0.91253
C         35.26376        41.68450        -0.87236
C         34.12889        42.38280        -0.44592
C         35.14909        44.55971        -1.16220
C         34.04239        43.79217        -0.47461
C         35.19164        46.02106        -0.80059
C         34.06920        46.70719        -0.43309
C         35.28667        48.89565        -0.47229
C         34.08144        48.15850        -0.26251
C         35.36916        50.27422        -0.16924
C         34.18919        50.97687         0.24620
C         35.47186        53.07304         0.38666
C         34.24962        52.35794         0.50137
C         35.54957        54.42278         0.84536
C         34.42081        54.98591         1.56299
C         37.94982        15.97565        -1.22914
C         36.72160        16.63335        -1.24687
C         37.80509        18.71790        -0.58662
C         36.62404        17.98558        -0.89690
C         37.77742        20.15331        -0.44696
C         36.56786        20.88262        -0.61732
C         37.77850        23.01936        -0.48724
C         36.55579        22.29230        -0.66138
C         37.77915        24.43985        -0.56880
C         36.54007        25.16077        -0.81066
C         37.85135        27.29427        -1.05815
C         36.54334        26.57030        -0.90371
C         37.77809        28.76870        -0.75674
C         36.56693        29.43968        -0.78974
C         37.79942        31.66995        -0.40887
C         36.51645        30.88778        -0.46649
C         37.78877        33.13146        -0.61276
C         36.54346        33.80878        -0.69657
C         37.79452        35.97208        -0.80809
C         36.54073        35.24156        -0.80084
C         37.80517        37.35805        -0.94605
C         36.55508        38.06960        -1.21776
C         37.78964        40.32896        -0.95910
C         36.54098        39.59134        -1.30686
C         37.74132        41.69825        -0.82963
C         36.50800        42.41088        -1.31984
C         37.69636        44.58497        -0.98111
C         36.48526        43.87564        -1.00143
C         37.70038        45.99095        -1.13472
C         36.43867        46.71931        -1.17098
C         37.79246        48.89434        -0.99310
C         36.46794        48.22850        -1.04363
C         37.80485        50.33385        -0.77079
C         36.60989        50.99834        -0.35608
C         37.84254        53.13654        -0.36071
C         36.65272        52.39746        -0.10258
C         37.80384        54.60688        -0.18517
C         36.72719        55.18831         0.63788
C         38.07996        57.21371         0.99095
C         36.87088        56.50989         1.08575
C         40.52014        14.58939        -1.11986
C         40.37922        15.91710        -0.69462
C         39.11875        16.63545        -0.82209
C         40.23747        18.72120        -0.08432
C         39.05754        18.02617        -0.49048
C         40.21258        20.14931         0.03061
C         38.99055        20.86470        -0.21829
C         40.17881        23.01119         0.08988
C         38.98275        22.29443        -0.20737
C         40.14386        24.42780         0.06937
C         38.99140        25.14754        -0.32171
C         40.13379        27.34082        -0.08193
C         39.01384        26.60276        -0.39553
C         40.17031        28.78999        -0.18253
C         39.02217        29.47384        -0.51519
C         40.29314        31.68520        -0.39469
C         39.05385        30.94666        -0.82843
C         40.27712        33.10920        -0.48570
C         39.03035        33.82778        -0.64264
C         40.28018        35.96360        -0.60633
C         39.04743        35.24844        -0.70922
C         40.29861        37.39859        -0.60149
C         39.08641        38.13554        -1.11818
C         40.15741        40.29846        -0.35739
C         38.99436        39.59037        -0.68710
C         40.18118        41.71438        -0.28776
C         38.89086        42.48510        -0.25425
C         40.16927        44.59231        -0.81812
C         38.96903        43.89621        -0.79276
C         40.22402        45.99534        -1.11722
C         38.95327        46.69979        -1.56014
C         40.22101        48.86753        -1.46404
C         38.94026        48.17584        -1.22038
C         40.23528        50.38890        -1.39673
C         38.99605        51.06984        -0.95692
C         40.27532        53.20827        -1.06545
C         39.01392        52.47382        -0.77629
C         40.32742        54.70949        -0.80201
C         39.08860        55.41966        -0.35401
C         40.51768        57.32087         0.47463
C         39.22398        56.67742         0.39710
C         40.63331        58.61366         1.03045
C         42.73365        14.39820        -0.15452
C         41.70823        13.85671        -0.88528
C         42.65393        15.78130         0.29308
C         41.48529        16.58303        -0.08330
C         42.66937        18.68215         0.45373
C         41.46065        17.98237         0.15345
C         42.63061        20.14661         0.79404
C         41.39351        20.87217         0.33471
C         42.64351        22.97703         0.54809
C         41.40360        22.28598         0.36058
C         42.63669        24.43362         0.71523
C         41.34133        25.17632         0.49167
C         42.69228        27.35009         0.32774
C         41.41128        26.61956         0.10956
C         42.68900        28.83593         0.35460
C         41.35730        29.54957         0.38569
C         42.69411        31.70024         0.02203
C         41.45326        30.99447        -0.06432
C         42.72004        33.11412        -0.15446
C         41.49331        33.82477        -0.34167
C         42.72203        35.96906        -0.23251
C         41.49704        35.25582        -0.39133
C         42.70254        37.39626        -0.12041
C         41.45105        38.09323        -0.26368
C         42.63362        40.31488         0.20624
C         41.32331        39.52977         0.21500
C         42.61990        41.73846        -0.18924
C         41.41786        42.42307        -0.27433
C         42.70171        44.58143        -0.66480
C         41.40433        43.94245        -0.21757
C         42.70176        45.99750        -0.92564
C         41.44065        46.70815        -1.06652
C         42.69436        48.84637        -1.25832
C         41.48061        48.13218        -1.26411
C         42.73635        50.29523        -1.29868
C         41.53585        51.06095        -1.23315
C         42.77257        53.19563        -1.13246
C         41.56165        52.47212        -1.08926
C         42.79194        54.60012        -0.88539
C         41.63550        55.32224        -0.52655
C         42.95491        57.34116         0.07193
C         41.69796        56.66010        -0.00714
C         43.01542        58.62811         0.63988
C         41.86421        59.25607         1.11117
C         45.29355        15.90671         0.41554
C         43.99158        16.57618         0.58112
C         45.13947        18.76301         0.29985
C         43.92491        18.03146         0.43979
C         45.13483        20.17853         0.34816
C         43.91086        20.88297         0.47532
C         45.14383        23.03043         0.45806
C         43.89185        22.29413         0.50268
C         45.14854        24.43761         0.58859
C         43.91542        25.18186         0.65536
C         45.14537        27.31269         0.83168
C         43.89179        26.56629         0.69965
C         45.12239        28.81868         0.73475
C         43.85698        29.54431         0.44371
C         45.14476        31.68878         0.13112
C         43.92142        30.99180         0.22184
C         45.18632        33.10934        -0.00690
C         43.96026        33.82499        -0.10541
C         45.18355        35.97819        -0.05691
C         43.95736        35.26040        -0.13746
C         45.16484        37.40934        -0.00017
C         43.92738        38.09576         0.03683
C         45.19891        40.30131        -0.01947
C         43.93192        39.56705         0.19405
C         45.17398        41.70852        -0.23743
C         43.88660        42.34856        -0.72673
C         45.13906        44.51195        -0.97186
C         43.88662        43.86022        -0.70609
C         45.16306        45.94656        -1.18153
C         43.91202        46.67758        -1.14475
C         45.15312        48.81674        -1.30602
C         43.93644        48.11992        -1.25870
C         45.19524        50.24115        -1.24717
C         43.98740        50.96925        -1.29838
C         45.32292        53.08052        -1.08171
C         44.03378        52.45550        -1.57198
C         45.39840        54.53941        -1.10066
C         44.05399        55.35467        -0.98899
C         45.39469        57.33423        -0.44584
C         44.14633        56.70755        -0.45532
C         46.40642        16.58594         0.10650
C         47.64319        18.77967         0.42219
C         46.41691        18.07104        -0.13210
C         47.63284        20.19677         0.43059
C         46.38477        20.91776         0.28760
C         47.68546        23.04061         0.08687
C         46.37560        22.31749         0.30796
C         47.65043        24.51183         0.38951
C         46.40228        25.15817         0.54282
C         47.54730        27.26965         0.19909
C         46.38653        26.56748         0.56037
C         47.33829        28.63548        -0.21617
C         46.32967        29.45504         0.18137
C         47.72635        31.69330         0.12901
C         46.42213        30.94053         0.23932
C         47.68871        33.16990         0.02175
C         46.44229        33.84023        -0.01406
C         47.65497        36.00530         0.03636
C         46.42874        35.27355        -0.01777
C         47.64184        37.43953         0.05104
C         46.40614        38.14026         0.04501
C         47.66253        40.29788         0.18858
C         46.39430        39.57342         0.06612
C         47.65974        41.81688        -0.06601
C         46.36312        42.43280        -0.40096
C         47.60997        44.38594        -1.29747
C         46.34138        43.77514        -0.88937
C         47.61889        45.90100        -1.57371
C         46.36400        46.62264        -1.37461
C         47.69388        48.75564        -1.21827
C         46.41544        48.09293        -1.68035
C         47.67442        50.16107        -0.94466
C         46.47187        50.90020        -1.04465
C         47.72627        53.00410        -0.52942
C         46.48081        52.33799        -0.87129
C         47.77040        54.41485        -0.37395
C         46.60914        55.21935        -0.66299
C         46.59375        56.61096        -0.54655
C         49.97010        18.79669         1.15785
C         48.80335        18.10067         0.80181
C         50.02197        20.18387         1.07956
C         48.84798        20.90738         0.71938
C         50.10923        23.05048         0.80184
C         48.88480        22.32298         0.65017
C         50.16367        24.47948         0.25804
C         48.85671        25.24767         0.39014
C         50.09212        27.45892         0.42164
C         48.83027        26.65201         0.21430
C         50.27270        28.90917         0.10257
C         49.22960        29.70200        -0.38669
C         50.21857        31.76591         0.27603
C         49.05915        31.05792        -0.07742
C         50.17168        33.19969         0.31381
C         48.91332        33.88234         0.12406
C         50.13419        36.02462         0.18551
C         48.89893        35.30823         0.10907
C         50.12827        37.44602         0.09513
C         48.89200        38.15682         0.04095
C         50.13972        40.28957        -0.09894
C         48.92296        39.57107         0.02698
C         50.14955        41.70507        -0.37076
C         48.92979        42.43469        -0.49213
C         50.09482        44.45943        -1.30465
C         48.90445        43.75536        -0.99491
C         50.10177        45.87197        -1.48667
C         48.90235        46.60485        -1.44519
C         50.14493        48.67920        -0.86132
C         48.89088        48.03140        -1.22665
C         50.11529        50.08411        -0.49043
C         48.91677        50.81706        -0.58234
C         50.13235        52.90075        -0.01414
C         48.92000        52.24068        -0.35782
C         50.11924        54.29722         0.23112
C         48.97291        55.03386         0.05367
C         52.45615        20.36141         0.56213
C         51.30936        20.90381         1.40988
C         52.57255        23.11215         1.40912
C         51.26463        22.39325         1.17437
C         52.52083        24.59223         1.10504
C         51.37775        25.24193         0.77016
C         52.63730        27.47191         0.87490
C         51.35212        26.72789         0.81731
C         52.65371        28.91354         0.79502
C         51.44024        29.61714         0.48878
C         52.64229        31.76777         0.68160
C         51.43892        31.04584         0.45240
C         52.62321        33.20027         0.65812
C         51.37951        33.90565         0.45540
C         52.59175        36.05225         0.44934
C         51.37105        35.33476         0.35992
C         52.58880        37.46680         0.28361
C         51.35793        38.16220         0.09555
C         52.61831        40.26262        -0.22478
C         51.37495        39.57580        -0.07311
C         52.61525        41.63270        -0.62016
C         51.38375        42.32517        -0.72891
C         52.67189        44.39873        -1.53773
C         51.34118        43.67041        -1.33208
C         52.74575        45.91833        -1.77224
C         51.36071        46.69529        -1.76527
C         52.55029        48.53914        -0.24314
C         51.33355        47.97349        -0.92963
C         52.58717        50.04438        -0.19823
C         51.35923        50.75806        -0.20138
C         52.60104        52.80498         0.29544
C         51.36616        52.15962         0.04131
C         53.57826        21.07326         0.30205
C         54.96097        23.13091         0.58465
C         53.75810        22.44624         0.71755
C         55.08089        24.55335         1.00246
C         53.79653        25.32041         1.28096
C         55.08579        27.45483         1.11604
C         53.82597        26.78020         1.09591
C         55.10307        28.93166         1.40836
C         53.84559        29.63560         0.96269
C         55.08281        31.78571         1.03425
C         53.85619        31.05848         0.89256
C         55.06145        33.20042         1.04546
C         53.82595        33.90859         0.84050
C         54.99083        36.07003         0.96076
C         53.82462        35.35303         0.73016
C         54.98466        37.52368         0.86655
C         53.79936        38.20999         0.36101
C         55.12737        40.24845        -0.18970
C         53.84945        39.57855         0.02146
C         55.11859        41.58321        -0.71536
C         53.89154        42.28631        -0.86722
C         55.10590        44.41908        -1.05598
C         53.88252        43.69167        -1.11420
C         55.11329        45.84695        -0.99320
C         53.86915        46.55951        -0.97284
C         55.09102        48.61304        -0.41650
C         53.86122        47.90493        -0.62660
C         55.08503        50.00575        -0.12253
C         53.81026        50.71395        -0.00287
C         53.78840        52.10839         0.25495
C         57.31628        23.24010        -0.11510
C         56.15584        22.53327         0.04425
C         57.40454        24.65510         0.14351
C         56.28149        25.33576         0.63399
C         57.47734        27.52590         0.58236
C         56.27882        26.76158         0.87256
C         57.56932        28.96742         0.78725
C         56.36769        29.66616         1.02656
C         57.56416        31.81599         1.09497
C         56.34080        31.08036         1.07088
C         57.51309        33.25809         1.22067
C         56.28459        33.92063         1.23316
C         57.48672        36.12307         1.26379
C         56.19860        35.39921         1.55883
C         57.55914        37.41135         0.79917
C         56.34751        38.26331         0.71757
C         57.65005        40.16869        -0.31139
C         56.33818        39.55092         0.03680
C         57.64109        41.69654        -0.37734
C         56.42675        42.20249        -1.23778
C         57.42680        44.52008        -1.53625
C         56.32207        43.72404        -1.22933
C         57.56953        45.86812        -1.13843
C         56.34361        46.54801        -0.87861
C         57.57392        48.65942        -0.61347
C         56.33937        47.95196        -0.62934
C         57.52746        50.03309        -0.30274
C         56.31900        50.67791        -0.05132
C         59.90226        24.84263        -0.26382
C         58.62138        25.40689        -0.11124
C         60.35431        27.82235         0.26618
C         58.49016        26.82612        -0.06406
C         60.12297        29.03484         0.93373
C         58.82195        29.69721         0.86649
C         60.06989        31.82514         1.31549
C         58.78667        31.09572         1.10901
C         60.04425        33.32303         1.49142
C         58.73574        34.01904         1.45497
C         59.83943        36.20255         2.14211
C         58.70467        35.38840         1.56210
C         60.05563        37.47912         1.33485
C         58.88199        38.03481         0.55760
C         60.28214        40.16990         0.19748
C         58.92578        39.45189         0.04421
C         60.17440        41.68110         0.04371
C         59.06048        42.23915        -0.62458
C         60.28345        44.40405        -0.79101
C         59.29189        43.49804        -1.20275
C         60.12846        45.85744        -1.03052
C         58.85535        46.53762        -1.04527
C         60.04774        48.67609        -0.88857
C         58.83323        47.95745        -0.86002
C         61.12853        25.49448         0.01720
C         61.33338        26.80943         0.43855
C         61.20326        29.68384         1.64477
C         61.20178        31.02479         1.82662
C         61.17621        34.07969         2.08133
C         61.10098        35.39616         2.32588
C         61.00580        38.47693         1.87712
C         61.02843        39.74406         1.43959
C         61.31338        42.48176         0.26491
C         61.31995        43.85099        -0.01419
C         61.30303        46.62376        -1.04579
C         61.26374        48.01998        -1.03047
O         47.17728        31.30509         1.46919
O         38.05744        55.41498        -1.38457
O         47.69925        41.27018         1.28984
O         45.20470        28.18697         2.04952
O         48.24631        29.10669        -1.16318
O         31.17503        45.19883         2.28920
O         36.24949        47.59581        -2.37060
O         44.74203        55.15418        -2.26224
O         43.34509        40.06260         1.48573
O         41.78165        24.88586         1.85080
O         53.34038        46.06946        -3.04695
O         26.08094        35.19650        -0.94954
O         32.42604        20.68001        -2.87105
O         28.81281        30.44334        -1.52933
O         42.27846        26.87354        -1.05777
O         58.44095        39.51161        -1.34970
O         40.19682        54.18114        -2.15647
O         27.05364        42.66968        -0.84420
O         55.60988        38.22822         1.99998
O         33.47017        27.00261        -2.63504
O         35.07504        19.29048         0.50585
O         31.87586        37.83485        -1.98540
O         29.52721        42.80953         2.53968
O         52.01698        43.69441        -2.63437
O         50.32010        24.28817        -1.14650
O         43.16820        16.03775         1.64221
O         54.63911        24.84397         2.39115
O         37.17637        31.21716         0.82393
O         59.93647        37.23775        -0.08700
O         29.91069        26.63784         0.68477
O         58.46153        43.91419        -2.24001
O         60.41114        32.72346         0.18771
O         28.85310        46.31365         2.78326
O         40.15016        49.68688        -2.68420
O         47.56314        44.92055        -2.66082
O         50.43466        27.24780         1.85903
O         59.43914        27.56377        -0.77701
O         27.74410        40.61835         2.10913
O         36.58557        38.80689        -2.53558
O         27.59567        30.77631         1.76827
O         26.53299        34.11667         2.44277
H         27.38968        33.95748         2.91574
O         38.16212        27.20262        -2.50997
H         37.40214        27.59203        -2.99413
O         43.84705        41.99620        -2.16825
H         44.55783        42.50459        -2.61607
O         41.28750        44.23328         1.21824
H         40.43205        43.84327         1.51705
O         32.35488        40.72009        -2.08482
H         32.15006        39.90303        -2.59488
O         23.78192        26.64474        -1.80000
H         22.92333        26.18715        -1.92629
O         34.80384        44.54458        -2.61156
H         35.37438        45.21402        -3.05171
O         51.60970        20.60486         2.79908
H         52.21073        21.32181         3.12553
O         55.07955        29.02571         2.88957
H         54.28406        28.54160         3.20011
O         27.02084        39.66807        -1.37353
H         26.14056        39.54695        -1.80186
O         28.93359        25.55148        -2.65248
H         28.86476        24.71394        -3.15771
O         29.53563        37.69906         2.11581
H         28.94819        38.30239         2.62229
O         52.81664        22.99369         2.85301
H         53.60464        23.56916         3.04777
O         46.46947        48.17047        -3.15344
H         45.68115        47.70799        -3.50956
O         46.48986        18.23777        -1.58931
H         46.56425        19.19865        -1.77484
O         51.17471        47.19413        -3.11051
H         52.00035        46.90260        -3.60311
O         56.62492        41.72164        -2.57811
H         55.96515        42.14464        -3.16582
O         39.29154        38.21389        -2.57484
H         38.43106        38.51745        -2.96159
O         39.04158        31.02944        -2.29370
H         39.80131        30.51212        -2.63581
O         52.35946        48.13367         1.18160
H         53.07591        48.56223         1.69804
O         38.60876        42.66963         1.20399
H         38.65078        41.78085         1.62112
O         41.04269        29.62232         1.82590
H         41.78220        30.08602         2.27435
O         42.54795        20.17774         2.28118
H         43.27915        19.62102         2.62557
O         32.07961        52.23562         2.74124
H         31.35239        51.70705         3.13271
O         24.17271        39.60804        -1.35139
H         24.05444        40.55853        -1.57062
O         32.64252        23.02647         0.67787
H         33.41888        23.50162         1.04561
O         56.00592        35.49128         3.01684
H         55.85255        36.44577         3.20884
O         40.92551        39.37552         1.61760
H         41.76311        39.40947         2.14340
O         57.32499        42.17176         0.96017
H         58.08332        41.98889         1.55373
O         32.54727        53.59922        -0.60207
H         33.28388        54.10717        -1.00310
O         61.09564        39.74548        -0.92480
H         60.48613        39.60773        -1.68432
O         36.53484        42.33185        -2.78756
H         35.76017        42.85414        -3.10715
O         28.71095        32.97468         2.31811
H         28.40708        32.13085         2.73270
O         38.94117        46.64759        -3.03344
H         38.13637        47.13901        -3.32083
O         59.40356        36.64764         3.46214
H         59.07162        35.86719         3.95387
O         33.43607        41.03682         1.40117
H         33.41220        41.77733         2.04336
O         48.00604        22.93048        -1.35016
H         48.88344        23.43685        -1.47822
O         32.66779        31.65935        -2.63824
H         31.77859        32.01555        -2.85115
O         44.05848        52.58401        -3.03464
H         44.18862        53.54514        -3.22454
O         32.25218        45.92957        -1.73591
H         32.92669        45.45112        -2.27682
H         23.03153        23.32168         0.46181
H         21.00192        24.55550         1.06652
H         20.98126        27.01849         1.17635
H         20.82225        28.91855         0.72709
H         20.83405        31.34337         0.91503
H         20.85876        33.24434         1.01362
H         20.88472        35.66653         1.03525
H         20.95925        37.56016         1.08456
H         20.99042        39.97678         1.24734
H         20.92256        41.88583         0.92772
H         20.95112        44.29889         1.18313
H         20.94288        46.14463         1.38386
H         23.08700        49.83434         1.75247
H         20.96578        48.58637         1.66495
H         24.54795        22.38507        -0.25195
H         24.71377        50.78164         1.61282
H         26.59778        21.20894        -0.77392
H         26.80028        51.99927         1.47299
H         30.23569        19.16280        -1.96672
H         28.16208        20.34039        -1.49958
H         30.51993        54.15451         1.07593
H         28.40570        52.94362         1.06488
H         32.05603        18.14765        -1.93926
H         32.37407        54.81825         2.11073
H         34.05370        16.89872        -1.40616
H         34.55887        55.91474         2.13309
H         37.97458        14.91071        -1.49361
H         35.82271        16.06348        -1.51614
H         38.12412        58.19623         1.47883
H         36.04110        57.00200         1.60947
H         39.69689        14.08281        -1.63948
H         39.74281        59.13941         1.39679
H         43.60629        13.79088         0.11875
H         41.77248        12.81781        -1.23724
H         43.97417        59.15669         0.71397
H         41.92831        60.26311         1.54527
H         45.34066        14.82168         0.58671
H         45.47096        58.40209        -0.20139
H         47.34454        16.03307        -0.04509
H         47.52854        57.16027        -0.37421
H         50.85803        18.23295         1.47472
H         48.82063        17.00299         0.83243
H         51.03212        54.81601         0.54843
H         49.00373        56.11629         0.23029
H         52.38152        19.32271         0.20555
H         52.63600        53.88192         0.50178
H         54.38844        20.58478        -0.26018
H         54.72359        52.65489         0.43039
H         58.20152        22.72376        -0.51142
H         56.14615        21.46787        -0.22300
H         58.44869        50.62772        -0.24899
H         56.35211        51.75083         0.17922
H         59.96813        23.75088        -0.38928
H         60.04647        49.77040        -0.80489
H         62.00221        24.82627         0.08109
H         62.27939        27.05119         0.94536
H         62.07551        29.08181         1.93962
H         62.06607        31.52592         2.28315
H         62.13222        33.55505         2.22709
H         61.97780        35.92717         2.72772
H         61.59485        38.18516         2.75951
H         61.69920        40.46941         1.92281
H         62.19699        42.03724         0.74252
H         62.15398        44.47489         0.33643
H         62.27654        46.11496        -1.07247
H         62.19839        48.59569        -1.07418
