         324
 CSIRO Nanostructure Databank - Neutral Graphene Oxide Data Set
C          1.63756         1.31389        -0.10872
C          1.48331         2.62753        -0.55064
C          2.83365         0.95024         0.49001
C          2.49909         3.58640        -0.34210
C          1.16167         6.73182         0.08657
C          1.24994         8.02073         0.59772
C          2.33452         5.99208        -0.11892
C          2.50345         8.62289         0.77540
C          1.37011        10.87128         1.38713
C          1.38576        12.21892         1.42677
C          2.58737        10.04443         1.20173
C          2.58570        13.02995         1.12629
C          1.43633        15.24708         1.29593
C          1.49036        16.67519         1.35413
C          2.44198        14.47258         0.76030
C          2.61975        17.36831         0.96777
C          2.80206        18.79055         1.13687
C          3.89042         1.89144         0.62350
C          3.74050         3.26348         0.23098
C          5.15152         1.40208         1.03369
C          4.85570         4.24541         0.63615
C          3.60885         6.50645         0.17377
C          3.69446         7.88985         0.50115
C          4.83604         5.65212        -0.00036
C          4.97002         8.59022         0.33649
C          3.86709        10.77755         0.86961
C          3.82751        12.27515         0.72664
C          5.00499        10.02126         0.29932
C          4.77559        12.87800        -0.26465
C          3.54703        15.13872         0.04396
C          3.65969        16.64172         0.22035
C          4.76730        14.36987        -0.43849
C          5.02787        17.24814         0.21236
C          3.93886        19.43594         0.73298
C          5.10739        18.72602         0.25993
C          6.31946         2.18209         0.86247
C          6.23919         3.57863         0.58242
C          7.57150         1.51607         0.90859
C          7.45251         4.29686         0.44828
C          6.13417         6.39655        -0.07940
C          6.13546         7.87968         0.00510
C          7.43489         5.72310         0.15586
C          7.34828         8.57543        -0.25238
C          6.13574        10.70172        -0.16448
C          6.03368        12.12802        -0.57295
C          7.33932         9.99331        -0.43470
C          7.27172        12.88139        -0.90713
C          6.08633        15.04725        -0.70905
C          6.22495        16.46546        -0.25291
C          7.33285        14.23966        -0.91087
C          7.43209        17.20302        -0.61928
C          6.30076        19.33916        -0.02780
C          7.47545        18.59485        -0.43598
C          8.75558         2.20983         0.71521
C          8.70549         3.60976         0.54357
C         10.05730         1.44679         0.79614
C          9.98334         4.33673         0.44048
C          8.59116         6.43828        -0.07517
C          8.57305         7.85348        -0.40996
C          9.91131         5.79756         0.09612
C          9.73154         8.54376        -0.80043
C          8.50370        10.66970        -0.90151
C          8.39928        12.07435        -1.48403
C          9.67983         9.93523        -1.10143
C          9.73764        12.79731        -1.56821
C          8.58528        14.96071        -1.31389
C          8.60628        16.47027        -1.13866
C          9.88123        14.21063        -1.43858
C          9.91618        17.10335        -0.90180
C          8.70091        19.26863        -0.64775
C          9.91867        18.54281        -0.71598
C         11.27270         2.17169         0.25468
C         11.24608         3.61015         0.13512
C         12.38007         1.42217        -0.07255
C         12.37690         4.31077        -0.29267
C         11.04568         6.37171        -0.67517
C         10.97279         7.79562        -1.10396
C         12.36783         5.72562        -0.61961
C         12.22618         8.52603        -1.42486
C         10.81301        10.55450        -1.77015
C         10.74925        11.94228        -2.05386
C         11.98643         9.78450        -1.99686
C         12.70016        13.07938        -2.07125
C         11.12693        14.93935        -1.35168
C         11.08529        16.33804        -0.93339
C         12.46693        14.34589        -1.47580
C         12.30036        16.98879        -0.40137
C         11.12300        19.25279        -0.63127
C         12.31808        18.56087        -0.23524
C         13.68368         2.05442        -0.25291
C         13.65093         3.58143        -0.34529
C         14.88748         1.36269        -0.75180
C         14.81690         4.23069        -0.98366
C         13.49738         6.46115        -0.96303
C         13.51939         7.89999        -1.26972
C         14.75432         5.71004        -1.17430
C         14.77680         8.61047        -1.26334
C         13.94532        10.90857        -2.06288
C         13.87328        12.28962        -1.86193
C         14.94403        10.06763        -1.43392
C         15.11169        12.98959        -1.50275
C         13.65354        15.05286        -1.02209
C         13.61137        16.35644        -0.53900
C         15.00214        14.43497        -1.12184
C         14.81431        17.09245        -0.20568
C         13.61795        19.23503        -0.24718
C         14.78442        18.54325        -0.13968
C         16.08298         2.04144        -0.95007
C         16.11571         3.50618        -0.91844
C         17.34023         1.36277        -1.06799
C         17.28003         4.20437        -1.01694
C         16.00208         6.44277        -0.86361
C         16.01255         7.91021        -0.94524
C         17.27812         5.65806        -0.75208
C         17.20474         8.52814        -0.56383
C         16.09540        10.70645        -0.96389
C         16.29556        12.16146        -1.12712
C         17.09670         9.96395        -0.12270
C         17.41521        12.86405        -0.38978
C         16.12124        15.01543        -0.33988
C         16.03347        16.42055        -0.02471
C         17.23939        14.27795        -0.00957
C         17.22527        17.10919         0.42259
C         16.09064        19.30890        -0.18837
C         17.25220        18.56776         0.43101
C         18.55792         2.05124        -1.13096
C         18.56842         3.54092        -1.41457
C         19.79036         1.38224        -1.02153
C         19.80984         4.26302        -0.92982
C         18.53505         6.41141        -0.71334
C         18.45706         7.79861        -0.41678
C         19.76419         5.70677        -0.70956
C         19.64257         8.45636         0.02429
C         18.41046        10.67536         0.12011
C         18.47274        12.04175         0.26000
C         19.55119         9.84291         0.53721
C         19.64731        12.71954         0.77371
C         18.29747        14.91273         0.81258
C         18.34620        16.39077         0.81352
C         19.52804        14.13971         1.19180
C         19.58348        17.05379         1.15730
C         18.33009        19.23890         0.89507
C         19.56342        18.55398         1.41111
C         21.01688         2.08915        -0.89135
C         20.98546         3.54784        -0.82849
C         22.23354         1.40762        -0.74972
C         22.26941         4.25098        -0.66322
C         20.93101         6.41998        -0.35184
C         20.87829         7.77476         0.06407
C         22.22674         5.73093        -0.41147
C         22.12772         8.47488         0.41781
C         20.82317        10.55328         0.94345
C         20.82225        12.03199         1.01151
C         22.10271         9.84151         0.81214
C         22.01621        12.65738         1.54139
C         20.78136        14.90051         1.55614
C         20.76682        16.36924         1.30666
C         22.06677        14.15037         1.80085
C         22.05955        17.13792         1.54113
C         20.80938        19.18926         0.86211
C         22.00413        18.52119         0.91724
C         23.47682         2.06662        -0.47676
C         23.49455         3.49267        -0.32731
C         24.67814         1.35640        -0.31302
C         24.66935         4.16068         0.00965
C         23.37620         6.35802         0.29685
C         23.36227         7.82255         0.40729
C         24.64298         5.58545         0.42532
C         24.65913         8.58124         0.45251
C         23.28360        10.49077         1.29821
C         23.05023        11.80792         1.88240
C         24.55519         9.89794         1.20132
C         24.95894        12.85373         1.87848
C         23.37315        14.93709         1.62961
C         23.28447        16.34374         1.09218
C         24.73325        14.27346         1.56482
C         24.38357        16.98025         0.57360
C         23.19223        19.13460         0.43416
C         24.38631        18.41491         0.28455
C         25.89949         2.02896        -0.05304
C         25.89970         3.45338         0.11748
C         27.12835         1.32909         0.05610
C         27.11769         4.16132         0.33862
C         25.91203         6.33522         0.55291
C         25.89947         7.73142         0.73147
C         27.12776         5.60268         0.49879
C         27.13542         8.40691         0.86289
C         25.85733        10.58650         1.49018
C         25.94701        12.07965         1.36158
C         27.14137         9.84851         1.24673
C         27.08721        12.74676         0.72451
C         25.73364        14.81484         0.59666
C         25.58896        16.22237         0.13385
C         27.01045        14.09298         0.43101
C         26.83660        16.93011        -0.24775
C         25.55736        19.04838        -0.16610
C         26.78790        18.35922        -0.37659
C         28.33159         2.01316         0.24944
C         28.33932         3.44720         0.35684
C         29.58259         1.30295         0.32005
C         29.58811         4.14797         0.43866
C         28.36457         6.30120         0.52443
C         28.34737         7.70891         0.70135
C         29.61781         5.57432         0.43774
C         29.59881         8.45562         0.43555
C         28.40676        10.65129         1.04104
C         28.34374        12.04675         0.59180
C         29.69157         9.90848         0.74692
C         29.49953        12.71875         0.14384
C         28.05422        14.72224        -0.45659
C         28.03448        16.23704        -0.41890
C         29.41759        14.10218        -0.26085
C         29.23006        16.94528        -0.75157
C         27.95513        19.05072        -0.73924
C         29.17449        18.36500        -0.93338
C         30.76624         1.97185         0.43464
C         30.80638         3.40978         0.46673
C         32.03242         4.10279         0.50778
C         30.87109         6.24052         0.39155
C         30.89801         7.71269         0.20800
C         32.06027         5.49202         0.45386
C         32.13020         8.52145         0.28246
C         30.86747        10.64088         0.24322
C         30.77913        12.03535         0.06251
C         32.08950         9.88149         0.16470
C         31.92672        12.81684        -0.29679
C         30.55954        14.82321        -0.59448
C         30.47568        16.25636        -0.91133
C         31.82857        14.15229        -0.57486
C         31.59779        16.98810        -1.30835
C         30.35200        19.06720        -1.32172
C         31.53183        18.38041        -1.52018
O         30.05543         8.16602        -0.92626
O          3.13058        16.07167        -1.00798
O         14.01870         2.93875         0.90174
O          2.15438         4.82441        -0.85039
O          5.13140        14.79878        -1.78185
O          4.89591        12.20714        -1.54872
O         12.96592        10.31695        -2.84695
O         19.91423         9.95056         1.95960
O         24.03132        12.28189         2.75008
O         25.15935        15.10647        -0.75929
O          5.91123        16.59940         1.20082
O         14.65351         4.80956        -2.33223
O         24.32189        15.01747         2.76047
O         21.26851        14.60734         2.93487
O         11.72693        12.50792        -2.88406
O         15.39854        14.04278        -2.48645
O         10.67591         6.68633        -2.06369
O         17.49339        12.59951        -1.85317
O         16.48123         5.98032         0.45946
O         10.19863         5.39397         1.46558
O          3.59496        10.31370         2.23061
O         26.61267        10.02222         2.61730
O         18.44180        14.32288         2.16820
O          8.37843        15.85794        -2.46708
O         23.72844         5.73429         1.59646
O          3.76942        12.92825         2.02506
O         12.10693        17.63280         0.88342
O         22.54521         5.23128        -1.75424
O         29.36795        10.33349         2.11008
O          5.46125         5.82038        -1.29664
O         16.49207         9.91797         1.22971
H         17.11570         9.43450         1.81496
O         19.60743        18.72526         2.86145
H         20.45263        18.31346         3.17220
O         15.94446        20.61087         0.37726
H         15.80214        20.51218         1.34106
O          8.00890        11.85300        -2.88398
H          7.03115        11.77250        -2.92348
O          4.61624         4.53682         2.05153
H          4.66245         3.69016         2.54465
O         24.90312         9.00455        -0.96731
H         24.06587         9.38471        -1.31137
O          9.91135         0.16193         0.17938
H          9.66511         0.29684        -0.75849
O         18.61341         3.66955        -2.88121
H         19.46807         3.29455        -3.18353
O         22.15743        17.32808         2.98549
H         22.07806        16.43154         3.39528
O         27.64924        14.36839        -1.82928
H         26.69388        14.61233        -1.90113
H          0.82941         0.58246        -0.24185
H          0.55474         2.94998        -1.03910
H          3.00275        -0.08287         0.82364
H          0.18987         6.29028        -0.16700
H          0.32740         8.58237         0.79178
H          0.41121        10.35938         1.55330
H          0.43561        12.75169         1.57950
H          0.59534        14.75785         1.80813
H          0.66227        17.20939         1.84181
H          1.97161        19.36945         1.56745
H          5.25420         0.33827         1.29248
H          4.00898        20.52912         0.83230
H          7.59740         0.43156         1.08579
H          6.39134        20.43177         0.06530
H         10.26148         1.24580         1.88535
H          8.74070        20.36353        -0.55553
H         12.29281         0.32558        -0.11144
H         11.14160        20.34078        -0.78987
H         14.86735         0.26418        -0.82110
H         13.64189        20.33154        -0.33641
H         17.35537         0.26600        -0.96666
H         16.33771        19.46363        -1.27841
H         19.80189         0.28380        -0.94609
H         18.32211        20.34002         0.89018
H         22.23159         0.30884        -0.81448
H         20.76980        20.21380         0.46087
H         24.67936         0.26071        -0.41206
H         23.15445        20.18943         0.12324
H         27.13580         0.23358        -0.04451
H         25.53115        20.13441        -0.34093
H         29.56547         0.20450         0.26944
H         27.92153        20.14256        -0.86849
H         31.71625         1.41955         0.47924
H         32.97377         3.53614         0.54235
H         33.03100         6.00617         0.43787
H         33.10446         8.01497         0.32850
H         33.04214        10.42542         0.08760
H         32.91410        12.33722        -0.33541
H         32.74427        14.70781        -0.81614
H         32.56308        16.48885        -1.46395
H         30.30358        20.15524        -1.47064
H         32.43761        18.91841        -1.83264
