         657
 CSIRO Nanostructure Databank - Neutral Graphene Oxide Data Set
C          5.87787        31.81226        -0.17370
C          5.89997        33.15689        -0.20485
C          8.45894        27.54014        -0.06581
C          8.31367        28.92139         0.21061
C          7.19333        29.65369        -0.14477
C          8.25939        31.76935         0.65777
C          6.96110        31.00255         0.48728
C          8.24589        33.19254         0.61997
C          7.05063        33.92917         0.26352
C          8.22260        36.11566         0.70524
C          7.02709        35.30490         0.28173
C          8.32669        37.46854         0.03304
C         10.71543        23.20016         0.36111
C         10.76610        24.59935         0.49156
C          9.63918        25.39109         0.10973
C         10.75001        27.43354         0.89158
C          9.60780        26.78708         0.31531
C         10.61422        28.80733         1.38833
C          9.36422        29.59449         1.02657
C         10.63170        31.80837         1.51194
C          9.40736        31.06447         1.00665
C         10.73175        33.18874         0.89212
C          9.48091        33.91819         0.71205
C         10.72063        36.00099         0.27095
C          9.47947        35.29784         0.55807
C         10.75764        37.49507         0.52162
C          9.51087        38.17126        -0.02017
C         10.82374        40.26167        -0.42436
C          9.60140        39.55589        -0.37099
C         10.89219        41.65586        -0.50631
C         13.30255        18.96368        -0.39873
C         13.26752        20.35218        -0.24022
C         11.94260        21.09562        -0.28713
C         13.15241        23.15985         0.58721
C         11.89029        22.30550         0.67602
C         13.13411        24.44588         1.40442
C         11.93720        25.27191         0.97489
C         13.12902        27.36029         1.55485
C         11.96040        26.68967         1.12629
C         13.15815        28.85929         1.46056
C         11.84521        29.55085         1.92151
C         13.15108        31.63503         1.38711
C         11.92041        31.00918         1.48085
C         13.22269        33.00388         0.72264
C         11.94010        33.79995         0.72866
C         13.25127        36.00819         0.56444
C         12.01798        35.22330         0.32317
C         13.29911        37.36581         0.34240
C         12.04314        38.05805        -0.05296
C         13.44683        40.17362        -0.59429
C         12.09114        39.47913        -0.48256
C         13.37303        41.65923        -0.35384
C         12.13979        42.36556        -0.47561
C         13.38521        44.48701        -0.52385
C         12.16504        43.77720        -0.52142
C         13.43577        45.90067        -0.67953
C         15.85320        14.68485        -0.83656
C         15.80282        16.09700        -0.68707
C         14.58475        16.82870        -0.63748
C         15.74176        19.00276        -0.45661
C         14.53161        18.24781        -0.48541
C         15.72050        20.40075        -0.21746
C         14.47766        21.07585        -0.10240
C         15.69560        23.23796         0.55960
C         14.45816        22.52838         0.19597
C         15.62666        24.61030         1.00354
C         14.42423        25.22198         1.34592
C         15.64581        27.40509         1.75362
C         14.37316        26.60510         1.95826
C         15.66012        28.76669         1.86468
C         14.37970        29.52912         2.15565
C         15.63112        31.68486         1.51879
C         14.40623        30.98764         1.69461
C         15.67381        33.04625         1.19190
C         14.41441        33.80636         1.19120
C         15.71549        36.03132         0.96196
C         14.44399        35.30267         1.03973
C         15.73536        37.41381         0.80706
C         14.52084        38.12945         0.49390
C         15.78031        40.23937         0.36620
C         14.57374        39.50628         0.19616
C         15.81350        41.64524         0.09413
C         14.58732        42.35187        -0.21767
C         15.86197        44.45802        -0.42190
C         14.61530        43.77066        -0.35821
C         15.89473        45.84124        -0.72637
C         14.65438        46.57280        -0.80651
C         15.87941        48.66528        -1.23218
C         14.69946        48.00097        -0.93328
C         15.93082        50.07689        -1.26914
C         18.28165        10.47466        -1.66927
C         18.28343        11.83378        -1.38569
C         17.09035        12.57477        -1.18570
C         18.32416        14.70046        -0.83029
C         17.07415        13.97918        -0.95902
C         18.27146        16.11400        -0.62765
C         17.05075        16.80863        -0.62525
C         18.29206        19.08046        -0.46946
C         17.00248        18.28718        -0.69284
C         18.15990        20.46334         0.01352
C         16.95724        21.12925         0.03799
C         18.13820        23.22180         0.68702
C         16.93960        22.54710         0.44955
C         18.16212        24.70754         0.74752
C         16.87895        25.34868         1.20095
C         18.17453        27.33437         2.01362
C         16.88919        26.66582         1.57685
C         18.21403        28.82275         1.78618
C         16.93541        29.51054         1.99852
C         18.20696        31.64972         1.43673
C         16.92948        31.01683         1.80912
C         18.20526        33.00906         0.90651
C         16.90685        33.73893         0.81289
C         18.23781        35.96093         0.97406
C         16.95162        35.26361         0.77526
C         18.18722        37.39149         1.07422
C         17.00052        38.11553         0.88320
C         18.20419        40.26520         0.84650
C         17.01074        39.55859         0.75333
C         18.25606        41.76545         0.76237
C         17.01999        42.38097         0.16815
C         18.35462        44.42919        -0.32078
C         17.08285        43.74082        -0.19297
C         18.34473        45.80288        -0.76962
C         17.15090        46.48827        -0.97755
C         18.37158        48.61574        -1.69404
C         17.06161        47.83446        -1.70331
C         18.37803        50.09797        -1.53699
C         17.12659        50.80184        -1.44585
C         18.32724        52.94503        -1.57242
C         17.13538        52.22351        -1.46670
C         18.34526        54.37796        -1.62818
C         20.85432         6.44066        -3.25720
C         20.81299         7.79259        -2.75350
C         19.60227         8.41307        -2.51660
C         20.83052        10.32126        -1.38908
C         19.52063         9.66954        -1.75970
C         20.79896        11.77620        -1.01149
C         19.59057        12.58591        -1.46313
C         20.80297        14.63436        -0.74871
C         19.57076        13.99652        -0.93199
C         20.83636        16.09363        -0.52325
C         19.54545        16.87510        -0.51661
C         20.34044        18.87683         0.82084
C         19.45299        18.28629        -0.01643
C         20.52267        20.33405         0.98377
C         19.35714        21.14192         0.56934
C         20.68668        23.20259         0.99221
C         19.46008        22.61178         0.30016
C         20.66148        24.49343         1.42389
C         19.42071        25.26818         1.37556
C         20.70149        27.34632         1.53019
C         19.42772        26.60438         1.62544
C         20.67855        28.82581         1.52835
C         19.38772        29.52766         1.69452
C         20.69210        31.67663         1.55930
C         19.41776        30.97097         1.56043
C         20.70909        33.07531         1.46902
C         19.51352        33.79942         1.00301
C         20.69169        35.98675         1.29352
C         19.44322        35.27320         1.11914
C         20.70972        37.37853         1.30051
C         19.43848        38.09790         1.37121
C         20.74553        40.34416         1.15856
C         19.44664        39.61652         1.26211
C         20.74260        41.68562         0.83437
C         19.54404        42.24632         0.09381
C         20.84862        44.40411        -0.11844
C         19.56608        43.74379        -0.10138
C         20.89706        45.79731        -0.57326
C         19.66600        46.34105        -1.29024
C         20.82021        48.68119        -1.01765
C         19.64867        47.86650        -1.46907
C         20.85732        50.11321        -1.43896
C         19.57944        50.80109        -1.57653
C         20.78658        52.96599        -1.68814
C         19.58603        52.24613        -1.61750
C         20.78809        54.39301        -1.67357
C         19.52244        55.08915        -1.66805
C         20.76364        57.29570        -1.93021
C         19.44344        56.60412        -1.68105
C         20.82406        58.59197        -2.33736
C         23.29528         3.77206        -4.14018
C         22.07685         4.43145        -3.96966
C         23.30282         6.61869        -3.71660
C         22.03384         5.80153        -3.59415
C         23.30971         7.84448        -2.83806
C         22.08885         8.46411        -2.47252
C         23.33016        10.45310        -1.74149
C         22.10567         9.74248        -1.87741
C         23.37111        11.81133        -1.26484
C         22.10243        12.48592        -0.88099
C         23.28029        14.64388        -0.85083
C         22.07308        13.96351        -0.86291
C         23.31986        16.05150        -0.59350
C         22.14709        16.65327        -0.12406
C         23.27130        18.77697         0.33378
C         22.27706        17.85522         0.60326
C         23.17556        20.22169         0.61054
C         21.93336        20.92466         1.21609
C         23.20008        23.03338         1.48848
C         21.99635        22.46317         0.77470
C         23.20687        24.38249         2.13177
C         21.88602        25.14582         1.99207
C         23.22693        27.38701         1.76970
C         21.95139        26.63897         1.92617
C         23.16889        28.78522         1.73207
C         21.94605        29.54287         1.75483
C         23.19748        31.64872         1.83984
C         21.94200        30.93877         1.72914
C         23.16511        33.11078         1.97711
C         21.91101        33.84203         1.65082
C         23.18339        35.97711         1.39833
C         21.90856        35.21678         1.49076
C         23.10694        37.40764         1.89610
C         22.00050        38.16552         1.16601
C         23.18465        40.39037         1.56366
C         21.95956        39.65451         1.49857
C         23.21617        41.76999         1.29193
C         21.91132        42.53693         1.21454
C         23.20138        44.67179         0.74945
C         21.98073        43.82864         0.44681
C         23.38917        45.75754        -0.31451
C         22.07517        46.48123        -0.55822
C         23.36920        48.64115        -0.90951
C         22.07450        47.95091        -0.69310
C         23.33089        50.09551        -1.24789
C         22.03672        50.80081        -1.44738
C         23.31491        53.01338        -1.52693
C         22.08498        52.23317        -1.93123
C         23.27281        54.42036        -1.56491
C         22.01621        55.10240        -1.61691
C         23.31999        57.31587        -1.66352
C         21.99571        56.57385        -1.54507
C         23.30830        58.65389        -2.27115
C         22.08142        59.29312        -2.54914
C         23.31318        61.23124        -3.37495
C         22.09874        60.59431        -3.09748
C         24.52001         4.42462        -3.94901
C         25.76078         6.43881        -3.28104
C         24.57098         5.79466        -3.59424
C         25.79811         7.81757        -2.87964
C         24.53936         8.49078        -2.60791
C         25.80024        10.51694        -1.98891
C         24.55808         9.81889        -2.09865
C         25.80157        11.89635        -1.65675
C         24.55895        12.52486        -1.29671
C         25.66504        14.79368        -1.52131
C         24.61688        13.94157        -0.78871
C         25.76315        16.17188        -0.88011
C         24.54773        16.78813        -0.55862
C         25.79860        18.95861         0.06790
C         24.46940        18.23608        -0.30597
C         25.77530        20.22010         0.81480
C         24.49843        20.95264         0.84551
C         25.75690        22.98334         1.57036
C         24.44616        22.20985         1.68840
C         25.71053        24.43051         1.92181
C         24.44299        25.16694         1.50865
C         25.69779        27.33705         1.72125
C         24.48033        26.66931         1.74812
C         25.72706        28.77912         1.46217
C         24.40291        29.53990         1.48348
C         25.69852        31.66989         1.68122
C         24.42095        30.98561         1.75049
C         25.72222        33.05132         1.61261
C         24.49541        33.82110         1.82604
C         25.75098        35.99335         1.52203
C         24.47749        35.25635         1.44561
C         25.66390        37.43565         1.35889
C         24.44843        38.16328         1.86164
C         25.80034        40.43840         1.83512
C         24.46566        39.66645         1.86223
C         25.72051        41.81454         1.24145
C         24.46803        42.49823         1.14909
C         25.72360        44.68997         1.15485
C         24.47725        43.87968         0.89499
C         25.82357        46.01144         0.39566
C         24.59909        46.64450        -0.05455
C         25.83716        48.75452        -0.49080
C         24.58865        47.98057        -0.38372
C         25.75031        50.24322        -0.36913
C         24.48358        50.92535        -0.79055
C         25.76016        53.00063        -1.17531
C         24.53633        52.34305        -1.19771
C         25.82597        54.39836        -1.73277
C         24.52489        55.16020        -1.58171
C         25.82808        57.23559        -1.95152
C         24.56217        56.52345        -1.73191
C         25.77724        58.58739        -2.38621
C         24.55012        59.27242        -2.60731
C         24.52469        60.58627        -3.14720
C         27.00487         8.48335        -2.67014
C         28.25441        10.56270        -2.09907
C         27.04456         9.85525        -2.26330
C         28.26969        11.95053        -1.80803
C         27.02230        12.62468        -1.68793
C         28.30225        14.81545        -1.34025
C         27.00699        14.09403        -1.64868
C         28.24766        16.14739        -0.70224
C         27.00086        16.79201        -0.55594
C         28.25398        18.74379         0.63523
C         26.95418        18.05505         0.20421
C         28.22106        20.18482         0.93799
C         26.96980        20.85211         1.18856
C         28.23065        22.98597         1.78864
C         26.93572        22.28708         1.53048
C         28.27467        24.47884         1.86020
C         26.99338        25.18421         2.10981
C         28.26395        27.33393         1.62999
C         27.00050        26.70749         2.19415
C         28.23512        28.78995         1.40771
C         26.98005        29.55189         1.60695
C         28.21265        31.70216         1.54206
C         26.96460        30.93439         1.59161
C         28.22365        33.05341         1.27413
C         26.92708        33.75543         1.11868
C         28.18468        36.01671         0.65242
C         26.89710        35.26481         0.95764
C         28.23250        37.40019         1.32435
C         26.95414        38.21164         1.11444
C         28.22301        40.32879         1.18791
C         27.00246        39.65155         1.34923
C         28.22269        41.76047         1.14978
C         26.97005        42.50869         1.14560
C         28.27617        44.65235         1.36592
C         27.00145        43.89979         1.08705
C         28.28416        46.05741         0.78371
C         27.04372        46.67864         0.36868
C         28.28630        48.89810         0.22613
C         27.14778        48.06677        -0.14262
C         28.26497        50.39971         0.14319
C         27.00283        51.01336        -0.41472
C         28.26643        53.04117        -1.03067
C         26.98963        52.33239        -0.81730
C         28.27340        54.39099        -1.27531
C         26.99812        55.18371        -1.13759
C         27.02806        56.57355        -1.72058
C         29.50209        12.66883        -1.56866
C         30.74157        14.73471        -0.90571
C         29.54365        14.01660        -1.22551
C         30.73151        16.08893        -0.54810
C         29.46767        16.77242        -0.32084
C         30.67838        18.86310         0.17911
C         29.48791        18.09987         0.18318
C         30.63008        20.25020         0.46727
C         29.43779        20.88400         0.87975
C         30.74127        23.03760         1.24219
C         29.49227        22.26665         1.40841
C         30.77575        24.42502         1.85694
C         29.45142        25.17471         1.74380
C         30.75089        27.36069         1.58022
C         29.45950        26.64187         1.62985
C         30.77722        28.79210         1.66584
C         29.53580        29.54860         1.46764
C         30.77272        31.72118         1.60828
C         29.48953        30.98888         1.93970
C         30.72151        33.15589         1.36969
C         29.46382        33.83096         1.20934
C         30.64827        35.96355         0.85252
C         29.44341        35.22650         0.99223
C         30.63574        37.41999         0.68035
C         29.46907        38.14738         0.88346
C         30.62001        40.29938         0.61809
C         29.44291        39.59468         0.87729
C         30.65539        41.71556         0.79698
C         29.45154        42.45506         0.99372
C         30.75810        44.53865         0.89931
C         29.53139        43.87644         1.03978
C         30.74850        46.01866         0.91627
C         29.47402        46.74444         0.75523
C         30.71244        48.80132        -0.13887
C         29.54309        48.26197         0.71541
C         30.64764        50.12819        -0.62586
C         29.49057        50.93287        -0.59154
C         29.45928        52.22947        -1.08747
C         31.94685        16.83380        -0.33637
C         33.15954        18.95041         0.23560
C         31.94329        18.18744        -0.04159
C         33.12614        20.29587         0.40649
C         31.85221        21.07014         0.14014
C         33.23731        23.01877         1.02043
C         31.86618        22.44816         0.77485
C         33.30535        24.49115         1.47032
C         31.94277        25.19219         1.21464
C         33.28472        27.34171         1.78122
C         31.95469        26.65512         1.56504
C         33.21277        28.83952         1.60009
C         32.00829        29.53255         1.68292
C         33.23803        31.76009         1.71385
C         31.96175        31.00769         1.64788
C         33.21805        33.23280         1.38547
C         31.91375        33.88720         1.14205
C         33.09417        35.96638         0.39096
C         31.87235        35.26590         0.84635
C         33.06657        37.43926         0.25804
C         31.87676        38.11304         0.35897
C         33.10464        40.28727         0.27099
C         31.79421        39.58573        -0.02154
C         33.07150        41.54679         0.78188
C         31.90143        42.39885         0.78255
C         33.18555        44.50784         0.19920
C         31.99012        43.81118         0.71851
C         33.09368        45.85552        -0.10272
C         31.99655        46.71465         0.32137
C         31.82189        48.00708        -0.33783
C         34.26446        21.16923         0.83282
C         35.37164        23.24013        -0.28220
C         34.31493        22.49783         0.11615
C         35.36659        24.68460        -0.08160
C         34.37098        25.30458         0.74419
C         35.48884        27.46648         0.47437
C         34.38757        26.68572         0.95010
C         35.61321        28.85521         0.77690
C         34.51542        29.52920         1.49684
C         35.71440        31.74714         1.01439
C         34.54486        31.03435         1.56748
C         35.66728        33.18630         0.88302
C         34.47964        33.87435         0.94232
C         35.67189        36.02535         0.26638
C         34.41236        35.25658         0.41928
C         35.61871        37.39239        -0.07670
C         34.33295        38.11093        -0.16476
C         35.69870        40.32454        -0.28007
C         34.36910        39.63170        -0.15364
C         35.80563        41.73835        -0.46251
C         34.86330        42.62826         0.10804
C         34.38129        43.85446        -0.31789
C         36.42473        25.44411        -0.56813
C         37.69066        27.55646        -0.62024
C         36.53825        26.82166        -0.25570
C         37.81856        28.91043        -0.30231
C         36.74843        29.58950         0.38195
C         37.99936        31.74268         0.06940
C         36.82049        31.02919         0.54875
C         38.07359        33.12795         0.12460
C         36.98433        33.92428         0.79692
C         38.08382        36.00160        -0.11787
C         36.88979        35.33764         0.28250
C         38.04199        37.37897        -0.39662
C         36.82759        38.10046        -0.33731
C         36.81810        39.52378        -0.50891
C         39.00246        29.62813        -0.67166
C         40.30659        31.70602        -0.86472
C         39.10976        30.99388        -0.48692
C         40.38268        33.06210        -0.76714
C         39.25202        33.83516        -0.31117
C         39.27698        35.22589        -0.33423
O         29.04116        22.33016         2.83365
O         13.61794        23.33896        -0.77138
O         19.25421        48.23623        -2.83150
O         11.37398        35.55003        -0.95936
O         24.77533        50.69259         0.63671
O         20.76485        28.05010         0.24292
O         33.28642        32.75531         2.78905
O         20.34374        16.81150        -1.75444
O         19.89152        12.71482        -2.95035
O         19.34027        38.95871         2.57933
O         23.88505        33.61298         3.15263
O         14.21601        34.62937         2.38033
O         21.26685        18.11803         1.53254
O         34.14957        38.87380        -1.41486
O         24.52796        38.88498         3.13050
O         33.76243        21.96901         2.01154
O         34.25293        42.10754         1.26849
O         23.83685        35.64135         0.13717
O         33.62440        35.30701        -0.83938
O         21.21857        48.53341         0.38215
O         22.63905        57.17646        -0.36515
O         27.44546        17.93677         1.56597
O         21.35526        11.98737         0.31135
O         23.29528         7.14617        -5.03945
O         26.22820        24.65879         3.26856
O         31.71803        46.67908         1.77994
O         19.57676        20.85566         2.00663
O         25.22459        19.02831        -1.26333
O         16.95019        30.42438         3.14910
O          9.49029        28.95047         2.36093
O         23.59752        49.10568        -2.30456
O         26.59754        34.36796        -0.18974
O         21.67853        25.95061         3.21005
O         17.80636        18.83382        -1.80923
O         19.03565        33.22823        -0.26644
O         16.81093        34.45922        -0.46228
O         26.08678        37.85760        -0.00663
O         27.77579        14.74299        -2.72419
O         20.15020         9.49172        -0.39896
O         25.03686        29.15602         0.21580
O         34.90209        30.22416         2.74025
O         26.70623        48.28055        -1.56226
O         28.92797        29.24955         0.17370
O         23.83642        20.98236        -0.43491
O         11.96664        38.38397        -1.47344
O         18.82229        13.48264        -3.54680
H         19.20603        14.39222        -3.60802
O          6.46741        30.71734         1.84383
H          7.16327        30.20065         2.30557
O         28.24353        36.25963        -0.76546
H         27.70448        35.56384        -1.20733
O         22.20271        22.62336        -0.64983
H         21.32600        22.61601        -1.11358
O         28.33353        37.16764         2.75672
H         28.51430        38.02327         3.20009
O         22.93736        45.32862         2.03381
H         22.47276        44.64958         2.59192
O         18.16197        27.21781         3.48425
H         17.95536        26.28729         3.71591
O         23.70143        45.03694        -1.53911
H         23.83299        45.69001        -2.25865
O         26.71470        55.32868         0.28767
H         27.49194        55.74454         0.71483
O         31.83017        21.29730        -1.31051
H         31.05792        21.86463        -1.51726
O         21.62394        42.98428         2.63474
H         20.65342        42.88413         2.77382
O         24.47010        21.75104         3.07649
H         24.27583        22.53454         3.64627
O         19.60281        22.80809        -1.14309
H         19.32585        23.74687        -1.31728
O         10.38862        32.06447         2.94375
H         10.72643        31.28350         3.44050
O         28.36671        50.91571         1.51256
H         28.98695        50.32354         2.00533
O          8.10983        36.41873         2.16431
H          7.93051        35.56953         2.62414
O         26.15552        40.74094         3.23582
H         25.74651        40.04145         3.79827
O         27.06154        27.06836         3.60973
H         26.63202        26.33049         4.10489
O         31.74700        25.12282        -0.23000
H         31.04047        25.75656        -0.47767
O         37.41132        34.06233         2.20285
H         37.44001        33.16185         2.59200
O         24.38828        25.01726         0.07364
H         23.70581        25.61514        -0.29659
O         18.34858        42.25160         2.14561
H         17.63812        41.82097         2.66710
O         14.26956        26.43001         3.43409
H         14.27862        27.34542         3.81434
O         16.75134        47.51319        -3.08795
H         17.60480        47.47803        -3.57628
O         11.71950        21.54896        -1.62813
H         12.40603        22.23165        -1.81848
O         25.58453        45.12131         2.57503
H         24.63572        45.40849         2.67635
O         22.11243        20.87009         2.63631
H         21.23725        21.02351         3.05799
O         11.72419        29.53722         3.37012
H         10.81693        29.20040         3.57589
O         13.87470        40.04824        -1.98482
H         13.46298        39.21735        -2.32453
O         19.80860        45.75015        -2.61919
H         19.47724        46.41533        -3.26742
O         13.50589        32.73156        -0.68258
H         12.78577        32.17152        -1.04097
O         14.26883        29.42522         3.59502
H         13.45540        29.89895         3.88443
O         33.62567        24.51749         2.87347
H         32.84486        24.15085         3.36000
O         25.02152        13.89528         0.60746
H         24.37461        13.34385         1.09645
O         29.84621        48.68730         2.08372
H         30.65027        48.17457         2.35377
O         22.21210        52.13483        -3.40619
H         21.47490        51.57200        -3.72753
O         28.29102        44.83585         2.82167
H         27.37025        45.07289         3.09452
O         29.45194        30.88897         3.39921
H         29.68581        31.76312         3.77638
O         12.92615        24.07779         2.80980
H         13.23344        24.84873         3.35275
O         31.53526        39.62938        -1.45452
H         32.33862        39.24829        -1.88770
O         13.23468        29.16944         0.03251
H         13.95636        28.63402        -0.35948
O         10.77554        37.69979         1.95511
H          9.90531        37.38653         2.30501
O         22.69245        37.24361         3.26405
H         22.98754        38.03949         3.76491
O         31.01524        24.26449         3.28062
H         30.34240        23.61024         3.59718
O         26.08752        54.26740        -3.16105
H         25.35560        53.74708        -3.55509
O         23.49469        24.23433         3.54394
H         22.98351        24.94113         4.01026
O         19.56748        41.66113        -1.24448
H         20.19083        42.17993        -1.79586
O         18.44239        57.04411        -2.60575
H         18.69542        56.74209        -3.50176
O         11.75739        21.76730         2.01087
H         11.92949        22.50287         2.64749
O         18.29139        25.13748        -0.68870
H         17.42578        24.95381        -1.11622
O         33.63082        27.16877         3.19428
H         33.75786        26.19202         3.33795
O         22.35273        38.12528        -0.24782
H         21.65066        38.57408        -0.76378
O         25.15666        14.97669        -2.86058
H         25.91626        15.26035        -3.41797
H          4.99945        31.26630        -0.55010
H          5.05338        33.71608        -0.63189
H          7.63567        27.01625        -0.57355
H          6.37468        29.16737        -0.69687
H          6.10498        35.83540        -0.00196
H          7.39647        37.93900        -0.32275
H          9.78701        22.73667        -0.00596
H          8.75611        24.89061        -0.31374
H          8.66553        40.11995        -0.51019
H          9.95966        42.23975        -0.52871
H         12.35615        18.40657        -0.46829
H         11.11112        20.39449        -0.02875
H         11.21889        44.33027        -0.61753
H         12.49527        46.46716        -0.74915
H         14.90894        14.12440        -0.90739
H         13.63629        16.27466        -0.70252
H         13.78161        48.57888        -0.74502
H         14.99940        50.63633        -1.09196
H         17.31959         9.94561        -1.75820
H         16.12956        12.03782        -1.21180
H         16.17840        52.76199        -1.40350
H         17.38848        54.92078        -1.63256
H         19.91428         5.86364        -3.24680
H         18.66842         7.92744        -2.83890
H         19.08946        56.93164        -0.66258
H         19.88971        59.12256        -2.57626
H         23.29483         2.71141        -4.42943
H         21.13418         3.88840        -4.13836
H         23.30832        62.24740        -3.79354
H         21.14852        61.10452        -3.30995
H         25.45937         3.86945        -4.09598
H         26.70197         5.86396        -3.26573
H         26.72161        59.11624        -2.58498
H         25.47294        61.08659        -3.39008
H         27.95290         7.95893        -2.86506
H         29.20887        10.03254        -2.23672
H         29.22459        54.91386        -1.46292
H         27.98335        57.11085        -1.83020
H         30.44075        12.09356        -1.58730
H         31.70580        14.20815        -0.97835
H         31.58710        50.58715        -0.97504
H         30.34823        52.63581        -1.59508
H         32.90692        16.30714        -0.44998
H         34.10394        18.39687         0.36113
H         33.89400        46.32151        -0.69757
H         32.56114        48.29123        -1.10219
H         35.21918        20.63686         1.04642
H         36.27779        22.77075        -0.69406
H         36.63867        42.12335        -1.07062
H         34.92244        44.38598        -1.11558
H         37.21430        24.96178        -1.16284
H         38.50451        27.04642        -1.15638
H         38.96768        37.90577        -0.67158
H         37.78109        40.01823        -0.70787
H         39.83160        29.07247        -1.13456
H         41.16037        31.12506        -1.24309
H         41.29732        33.59425        -1.06660
H         40.19014        35.74475        -0.66236
