         420
 CSIRO Nanostructure Databank - Neutral Graphene Oxide Data Set
C         27.87837        27.39397         0.24046
C         27.87219        28.80409         0.17737
C         26.64206        29.53382         0.15065
C         27.86305        31.64656         0.00127
C         26.63801        30.89928         0.08415
C         27.85949        33.04746        -0.13729
C         26.66384        33.84836        -0.25015
C         27.91661        35.94411         0.27570
C         26.67092        35.20453        -0.14238
C         27.94371        37.43271        -0.02476
C         26.76751        38.22558         0.15796
C         27.91979        40.29595        -0.50615
C         26.76189        39.59274         0.04475
C         28.06066        41.76449        -0.54113
C         26.93519        42.60260        -0.35095
C         28.14388        44.46068        -1.34714
C         26.97630        43.92582        -0.73701
C         28.09332        45.71002        -2.01807
C         30.32001        27.36325         0.30024
C         29.07101        26.69360         0.28795
C         30.34139        28.78419         0.24530
C         29.11149        29.51278         0.15664
C         30.36943        31.62955         0.04018
C         29.11483        30.93274         0.05457
C         30.41132        33.03466        -0.11747
C         29.14110        33.74283        -0.32991
C         30.45044        35.92329        -0.10112
C         29.15037        35.24644        -0.26796
C         30.41874        37.33368        -0.05296
C         29.19218        38.05842        -0.16102
C         30.49134        40.24276        -0.52598
C         29.24114        39.48188        -0.54780
C         30.53348        41.57749        -0.92314
C         29.29456        42.32797        -0.95208
C         30.55405        44.21204        -1.94303
C         29.34644        43.68816        -1.36238
C         30.34711        45.31683        -2.78831
C         29.16182        46.08170        -2.80922
C         32.77809        24.52346         0.52511
C         31.59135        25.22561         0.37729
C         32.80625        27.34304         0.50006
C         31.56967        26.63459         0.38694
C         32.81188        28.76805         0.47483
C         31.58692        29.48922         0.30690
C         32.82922        31.62707         0.29876
C         31.59614        30.90692         0.20144
C         32.86236        33.04320         0.17658
C         31.63748        33.75608        -0.05284
C         32.95850        35.89859        -0.36215
C         31.64783        35.18878        -0.12044
C         32.94164        37.34967         0.03450
C         31.68011        38.04762         0.15142
C         32.99398        40.22059        -0.32512
C         31.70692        39.58978        -0.05322
C         33.02041        41.55784        -0.81208
C         31.80626        42.26121        -1.12387
C         33.13494        44.24981        -1.80960
C         31.84811        43.56747        -1.68572
C         33.26601        45.62073        -2.26050
C         32.34484        46.33204        -3.04630
C         33.34640        48.49593        -2.54517
C         32.37301        47.73082        -3.20143
C         35.27883        23.04941         0.93736
C         35.22215        24.43835         0.93370
C         34.00806        25.18557         0.69496
C         35.27433        27.32768         0.73459
C         34.04120        26.62056         0.65201
C         35.29150        28.76676         0.75648
C         34.03524        29.49093         0.65353
C         35.20601        31.64688         1.01639
C         34.01862        30.89775         0.61376
C         35.29149        33.08436         0.76102
C         34.10792        33.77351         0.35600
C         35.34860        35.89564         0.47385
C         34.15330        35.17293         0.20478
C         35.37014        37.32980         0.34620
C         34.14008        38.05772         0.14419
C         35.42962        40.16670        -0.12857
C         34.16907        39.49381        -0.04051
C         35.47138        41.50956        -0.58160
C         34.28721        42.21520        -0.93478
C         35.57689        44.32103        -1.15974
C         34.32127        43.59100        -1.34846
C         35.61807        45.72221        -1.32097
C         34.57625        46.37378        -2.16526
C         35.56917        48.59670        -1.44956
C         34.43789        47.86643        -1.94734
C         35.53560        50.03180        -1.29281
C         37.73194        22.97674         0.83887
C         36.50186        22.33827         0.87376
C         37.78406        24.39785         1.19979
C         36.45122        25.18572         1.22236
C         37.75173        27.28155         0.92748
C         36.51785        26.62941         0.94164
C         37.81146        28.74057         0.52048
C         36.51533        29.44354         0.82631
C         37.79491        31.63280         1.07888
C         36.54558        30.85929         1.13315
C         37.74509        33.01294         1.18195
C         36.51538        33.76045         0.97553
C         37.72579        35.93583         1.13085
C         36.53438        35.19080         0.85798
C         37.74295        37.32375         0.96081
C         36.57434        38.05204         0.54396
C         37.82991        40.22061         0.42217
C         36.61183        39.46451         0.28840
C         37.92463        41.50861        -0.06096
C         36.81004        42.14215        -0.85954
C         37.94150        44.40015        -0.51232
C         36.76883        43.65614        -0.76089
C         37.95270        45.81020        -0.58059
C         36.77518        46.48095        -1.00822
C         38.04702        48.67623        -1.04209
C         36.75089        47.91425        -1.11807
C         37.90999        50.14036        -0.68565
C         36.63021        50.74733        -0.88281
C         40.00506        20.43405        -0.75539
C         38.88733        21.02864        -0.22070
C         40.17255        23.02353         0.36720
C         38.94708        22.33524         0.34917
C         40.28991        24.35465         1.07817
C         39.01832        25.16784         1.00085
C         40.26278        27.30656         1.18708
C         38.99045        26.54907         1.02488
C         40.28357        28.78256         1.05147
C         39.05618        29.49506         0.96416
C         40.29200        31.61680         1.19685
C         39.05131        30.89708         1.08605
C         40.29269        33.03776         1.34863
C         38.97062        33.69341         1.75233
C         40.25496        35.94466         1.52151
C         38.94393        35.22256         1.62475
C         40.24145        37.38515         1.27480
C         38.97128        38.08192         1.27589
C         40.32012        40.25846         0.97469
C         39.00114        39.58386         1.06718
C         40.38367        41.60891         0.60142
C         39.21089        42.22415        -0.03760
C         40.39558        44.47532         0.22810
C         39.22889        43.70912        -0.26356
C         40.34261        45.87524         0.22305
C         39.14167        46.57801        -0.21487
C         40.22746        48.76854         0.35300
C         39.12146        47.95501        -0.27243
C         40.32061        50.18465        -0.16751
C         39.06899        50.86764        -0.41764
C         40.24558        53.01245        -0.42198
C         39.08977        52.32516        -0.34794
C         42.39946        20.53745        -1.35881
C         41.24494        21.12648        -0.77992
C         42.58414        23.13167        -0.25152
C         41.33106        22.43347        -0.21155
C         42.65836        24.48693         0.27191
C         41.53512        25.12458         0.71190
C         42.79438        27.32918         0.77935
C         41.57408        26.55470         1.08852
C         42.77421        28.74219         0.90328
C         41.51818        29.46318         1.08328
C         42.75587        31.61831         1.14634
C         41.53100        30.90125         1.13022
C         42.75545        33.02362         1.19091
C         41.51075        33.73913         1.34740
C         42.70046        35.90970         1.27365
C         41.53494        35.20075         1.39800
C         42.66322        37.39863         0.94173
C         41.50412        38.10528         1.64297
C         42.73367        40.25884         1.28814
C         41.50328        39.57529         1.29744
C         42.77787        41.66586         1.11190
C         41.58478        42.35054         0.75131
C         42.76627        44.52294         0.92704
C         41.58473        43.78353         0.60027
C         42.74065        45.92675         0.84619
C         41.54571        46.62835         0.47252
C         42.77783        48.78066         0.27576
C         41.52991        48.02832         0.33311
C         42.76467        50.25190         0.19371
C         41.51775        50.87964        -0.16537
C         42.74638        53.06581        -0.15381
C         41.55150        52.30613        -0.67154
C         43.58732        21.23261        -1.41430
C         44.95400        23.29876        -0.99860
C         43.69680        22.54776        -0.88455
C         45.09487        24.53006        -0.36807
C         44.01256        25.11924         0.50199
C         45.17766        27.37023         0.30815
C         43.98182        26.64168         0.46385
C         45.18271        28.77333         0.47596
C         43.99695        29.45271         0.78621
C         45.25384        31.64928         0.69614
C         44.07379        30.88464         1.26354
C         45.21857        33.09305         0.77989
C         44.01156        33.73765         1.10555
C         45.26972        35.96164         1.10026
C         43.99424        35.19585         1.30951
C         45.18724        37.40711         0.67544
C         43.96452        38.13951         1.14619
C         45.24018        40.24369         1.52597
C         43.97244        39.49172         1.33917
C         45.24800        41.71522         1.39881
C         44.02218        42.40086         1.23627
C         45.22378        44.52045         1.44024
C         44.00489        43.82316         1.22094
C         45.21611        45.98347         1.63316
C         43.90723        46.70220         1.30619
C         45.13704        48.95987         1.27792
C         44.01902        48.10232         0.81672
C         45.17275        50.35778         0.82834
C         43.93889        50.98844         0.39248
C         43.86187        52.44024         0.27478
C         47.26556        23.44637        -1.84299
C         46.05192        22.77814        -1.75381
C         47.48998        24.65687        -1.16740
C         46.39500        25.20191        -0.36470
C         47.61086        27.46868        -0.42213
C         46.46010        26.66717         0.05383
C         47.59006        28.83134        -0.27412
C         46.51443        29.49372         0.55745
C         47.62442        31.71435         0.02969
C         46.41163        30.98746         0.34698
C         47.63106        33.14254         0.16632
C         46.44810        33.82389         0.54300
C         47.63406        35.99172         0.35079
C         46.48359        35.24929         0.64132
C         47.63068        37.43397         0.52103
C         46.49449        38.10735         0.88181
C         47.76950        40.29462         1.06565
C         46.54181        39.51794         1.30078
C         47.75634        41.71510         1.30681
C         46.47915        42.41620         1.43586
C         47.71082        44.59803         1.65566
C         46.45222        43.83367         1.49163
C         47.69564        46.06632         1.43234
C         46.48969        46.73377         1.52068
C         47.70623        48.94793         1.32587
C         46.47022        48.20617         1.57506
C         47.61716        50.32985         1.13740
C         46.40118        51.01325         0.91625
C         49.91919        24.74475        -1.68962
C         48.72548        25.39240        -1.26298
C         49.98889        27.50639        -1.14588
C         48.76818        26.77725        -0.96409
C         50.00231        28.91914        -0.98241
C         48.68278        29.64608        -0.91314
C         50.02376        31.75383        -0.54790
C         48.78746        31.04996        -0.38545
C         50.04311        33.16613        -0.31048
C         48.86088        33.85941        -0.04672
C         50.04563        36.02711        -0.18940
C         48.87732        35.31976         0.03534
C         50.08513        37.50102        -0.18788
C         48.83875        38.22273         0.20538
C         50.18462        40.28036         0.60412
C         48.92618        39.62875         0.64807
C         50.22143        41.67229         1.07544
C         48.96214        42.40765         1.26150
C         50.23511        44.62443         1.12649
C         49.03210        43.85586         1.53706
C         50.18159        46.05597         1.07623
C         48.94816        46.77885         1.26950
C         50.17199        48.88222         0.99299
C         48.94142        48.19914         1.20393
C         51.11539        25.42419        -1.76415
C         52.42721        27.54938        -1.59234
C         51.18875        26.81613        -1.49438
C         52.42651        28.95601        -1.43633
C         51.19633        29.65367        -1.13892
C         52.39324        31.87073        -1.44485
C         51.19935        31.07502        -0.96524
C         52.54481        33.22035        -0.80925
C         51.35885        33.90538        -0.18035
C         52.56803        36.08368        -0.51743
C         51.26555        35.32560        -0.71558
C         52.57520        37.50164        -0.31102
C         51.37639        38.21207        -0.07884
C         52.62601        40.33774         0.13830
C         51.38233        39.60390         0.23889
C         52.64929        41.74804         0.25929
C         51.50304        42.46877         0.84657
C         52.56335        44.67222         0.35601
C         51.40923        43.94950         0.75893
C         52.59632        46.07509         0.47154
C         51.38545        46.77642         0.79760
C         51.34640        48.19917         0.79387
C         54.85479        27.55490        -1.86423
C         53.66630        26.87174        -1.82081
C         54.88263        28.97254        -1.72609
C         53.66167        29.68531        -1.54338
C         54.91254        31.79688        -1.49475
C         53.68917        31.10166        -1.46145
C         54.94178        33.24777        -1.33021
C         53.72343        33.93210        -0.94715
C         55.01187        36.08101        -0.79289
C         53.75845        35.37728        -0.70305
C         55.03219        37.51898        -0.60485
C         53.82644        38.21825        -0.34663
C         55.04726        40.37385        -0.37342
C         53.83117        39.64400        -0.20452
C         55.03201        41.81206        -0.33532
C         53.81391        42.47653        -0.08329
C         55.04762        44.72691        -0.33080
C         53.73403        43.94761        -0.17416
C         55.03535        46.12832         0.10394
C         53.86972        46.76509         0.38327
C         56.10647        29.68743        -1.77371
C         56.12153        31.05775        -1.63956
C         56.12091        33.98365        -1.41704
C         56.15938        35.36241        -1.14998
C         56.23593        38.26696        -0.71333
C         56.24159        39.64096        -0.61689
C         56.25785        42.58320        -0.40081
C         56.28535        43.93816        -0.31571
O         38.77661        39.05650         2.41836
O         43.81672        48.17251        -0.62242
O         48.48358        44.23264         2.84865
O         46.00995        39.73956         2.66960
O         45.60065        48.74807         2.62561
O         39.57535        42.79039        -1.37772
O         31.60521        38.99829         1.27541
O         54.17600        44.45556        -1.47779
O         28.43650        39.71819        -1.74774
O         46.81527        25.63966         1.03370
O         31.31840        45.66455        -3.72862
O         40.99033        26.85961         2.40139
O         29.05520        34.60217        -1.56124
O         49.19321        38.08790        -1.23605
O         35.73848        31.22259         2.30269
O         39.52668        35.78088         2.85134
O         44.29903        46.45492         2.68125
O         51.17873        41.93720         2.17548
O         37.10880        24.75468         2.44757
O         44.85460        35.65506         2.45051
O         51.62192        34.01476         1.24895
H         51.65060        33.11056         1.62532
O         44.35515        24.75986         1.88034
H         45.30486        25.00553         2.00427
O         42.34993        37.46186        -0.48216
H         43.18751        37.25647        -0.96899
O         45.02673        37.32155        -0.80567
H         45.35847        38.15689        -1.19965
O         41.67911        37.96145         3.07357
H         40.83108        38.20703         3.50376
O         38.85444        33.38629         3.17465
H         39.30008        34.12039         3.66106
O         40.46251        24.04958         2.50106
H         40.61737        24.91359         2.95241
O         39.84817        48.92319         1.78149
H         39.83246        48.02594         2.17869
O         33.14341        35.89477        -1.83621
H         32.98099        34.97881        -2.14813
O         44.35372        30.78117         2.70089
H         45.23848        30.35269         2.78662
O         37.12107        41.85988        -2.27271
H         38.05171        42.16946        -2.40488
O         37.93822        28.72003        -0.95997
H         37.14024        28.26987        -1.31170
O         46.93034        29.35755         1.97026
H         47.03552        28.39898         2.15694
O         52.07202        32.18290        -2.86687
H         51.63236        33.06457        -2.87921
O         51.07673        35.20399        -2.16432
H         50.83591        36.09060        -2.50990
O         41.71386        52.24790        -2.13145
H         42.51247        51.70856        -2.31315
O         35.15889        46.27231        -3.54416
H         35.23201        45.31541        -3.75253
O         28.02545        35.80793         1.73341
H         27.30429        36.33230         2.14054
O         48.26673        29.81010        -2.33165
H         48.99730        30.27699        -2.79241
O         38.55083        48.69136        -2.43934
H         38.46059        47.78119        -2.79541
H         26.92161        26.85251         0.25338
H         25.69494        28.97666         0.19101
H         25.67964        31.43532         0.07331
H         25.70555        33.34208        -0.43959
H         25.72678        35.75817        -0.25383
H         25.84902        37.72230         0.49723
H         25.87787        40.16258         0.36247
H         25.99744        42.17738         0.03210
H         26.07598        44.55245        -0.66576
H         27.17074        46.30647        -1.99431
H         29.03109        25.59781         0.33780
H         29.11165        46.96659        -3.45685
H         32.73791        23.42657         0.53388
H         30.66064        24.65513         0.26501
H         33.26231        49.59100        -2.55833
H         31.58198        48.21648        -3.78694
H         34.35667        22.46102         0.83726
H         34.58728        50.56292        -1.45172
H         36.43959        21.25229         0.71979
H         36.51636        51.82646        -0.70715
H         39.94619        19.42381        -1.18526
H         37.93445        20.48330        -0.23526
H         40.24630        54.11221        -0.38402
H         38.13930        52.86644        -0.23505
H         42.33252        19.52122        -1.77286
H         42.72885        54.16335        -0.23466
H         44.45864        20.74906        -1.87439
H         44.73175        53.03857         0.58098
H         48.06035        23.01570        -2.46765
H         45.94151        21.83353        -2.30048
H         48.53678        50.92264         1.03876
H         46.46716        52.08260         0.67227
H         49.90080        23.66918        -1.91161
H         50.18998        49.97927         0.96670
H         52.01535        24.87041        -2.06135
H         52.26063        48.77318         0.59608
H         55.80084        27.01443        -2.01183
H         53.67895        25.77979        -1.93258
H         55.99427        46.65961         0.19587
H         53.91204        47.82531         0.66734
H         57.04632        29.13309        -1.90874
H         57.08651        31.58119        -1.65777
H         57.06214        33.49347        -1.69974
H         57.12568        35.87448        -1.24816
H         57.18777        37.75218        -0.89924
H         57.19581        40.16940        -0.74081
H         57.21521        42.04518        -0.42506
H         57.24520        44.46925        -0.23253
