         228
 CSIRO Nanostructure Databank - Neutral Graphene Oxide Data Set
C        -11.24159         0.64421         0.24181
C         -9.97289         1.45128         0.39263
C         -8.76108         0.61691         0.04868
C         -7.54913         1.30131        -0.38326
C         -6.21972         0.51257        -0.27328
C         -4.97552         1.29981        -0.19059
C         -3.72742         0.50437        -0.08359
C         -2.38575         1.20749        -0.15933
C         -1.32081         0.69213         0.82641
C         -0.02175         1.38206         0.59182
C          1.15493         1.09126         1.28148
C          2.53477         1.57065         1.14075
C          3.68871         0.83814         1.42223
C          4.97027         1.56268         1.31151
C          6.19068         0.79848         1.06881
C          7.49022         1.52825         1.01754
C          8.79150         0.77551         0.89855
C          9.96010         1.47458         0.27435
C         11.04605         0.81260        -0.43755
C         -9.99861         2.77439        -0.40730
C         -8.67320         3.51704        -0.36260
C         -7.46978         2.77524        -0.39979
C         -6.21571         3.42251        -0.53551
C         -4.96377         2.66607        -0.42590
C         -3.69029         3.37354        -0.42621
C         -2.50979         2.71916        -0.13383
C         -1.25121         3.39312        -0.21127
C         -0.12865         2.57002        -0.21643
C          1.65200         3.79203         0.27631
C          2.60865         3.04717         1.08575
C          3.86623         3.81878         1.43172
C          5.05137         2.95990         1.32736
C          6.23391         3.69308         0.80548
C          7.49707         2.94737         0.58476
C          8.78796         3.67058         0.48505
C          9.95320         2.86281         0.23986
C         -8.62041         4.91136        -0.41831
C         -7.38695         5.59039        -0.58473
C         -6.19472         4.83182        -0.68529
C         -4.94342         5.53303        -1.01860
C         -3.61516         4.78157        -0.89163
C         -2.40810         5.59334        -0.65038
C         -1.20612         4.88609        -0.12794
C          0.04525         5.70090         0.16234
C          1.37261         5.09793         0.46818
C          2.50829         5.97734         0.96698
C          3.84972         5.23048         0.96826
C          5.01914         5.86395         0.63964
C          6.31715         5.18817         1.03796
C          7.55514         5.82656         0.43960
C          8.76642         5.05268         0.36346
C         -7.32344         7.03315        -0.66005
C         -6.13726         7.71915        -0.83805
C         -4.89418         6.99585        -0.99332
C         -3.67266         7.65682        -1.06837
C         -2.43942         6.97207        -0.77679
C         -1.31805         7.82086        -0.15678
C          0.04080         7.14815        -0.16898
C          1.21835         7.83273        -0.24401
C          2.50908         7.10406        -0.06179
C          3.78864         7.73285        -0.48455
C          5.04759         7.18722         0.07762
C          6.24989         7.86621        -0.08100
C          7.49937         7.16527         0.08808
C         -6.05630         9.17497        -0.77734
C         -4.90190         9.83311        -1.00861
C         -3.65960         9.11181        -1.47617
C         -2.37007         9.83924        -1.16290
C         -1.25771         9.25114        -0.68683
C         -0.00350        10.05414        -0.35539
C          1.28908         9.26678        -0.51712
C          2.47220         9.86814        -0.81336
C          3.75658         9.11024        -1.13945
C          5.03375         9.87321        -0.85469
C          6.18538         9.26921        -0.48458
C        -11.24808        -0.70516         0.19490
C        -10.02203        -1.49482         0.23182
C         -8.76606        -0.76853         0.16218
C         -7.52765        -1.50874         0.29985
C         -6.30819        -0.83071         0.29331
C         -5.10493        -1.48449         0.81983
C         -3.78618        -0.89424         0.44818
C         -2.56293        -1.59898         0.91636
C         -1.35872        -0.78384         1.22891
C         -0.07699        -1.51402         1.29812
C          1.08519        -0.97577         1.75047
C          2.44496        -1.55146         1.65686
C          3.71844        -0.66746         1.64073
C          5.06001        -1.43502         1.41627
C          6.17562        -0.56539         0.87021
C          7.40322        -1.27542         0.54935
C          8.61411        -0.67954         0.76687
C         10.23182        -1.53599        -0.56014
C         11.15929        -0.46825        -0.90502
C        -10.02428        -2.87314         0.21797
C         -8.79881        -3.63695         0.27192
C         -7.56642        -2.94455         0.46742
C         -6.37438        -3.69476         0.67432
C         -5.12443        -2.98779         1.01869
C         -3.83385        -3.70972         0.87622
C         -2.57965        -2.96442         1.00621
C         -1.28400        -3.74525         1.21083
C         -0.06552        -2.90933         0.82817
C          1.23658        -3.61649         0.81419
C          2.51034        -2.93093         1.14437
C          3.73086        -3.57048         0.80908
C          4.96050        -2.82713         0.77619
C          6.10941        -3.44932         0.25469
C          7.28957        -2.61102        -0.10497
C          8.41143        -3.22004        -0.93444
C          9.68051        -2.51128        -1.31951
C         -8.77751        -5.03545         0.10869
C         -7.56588        -5.76359         0.15094
C         -6.36413        -5.08468         0.49797
C         -5.11260        -5.88439         0.80213
C         -3.85204        -5.05654         0.64002
C         -2.60048        -5.75732         0.30292
C         -1.28894        -5.05029         0.43882
C         -0.04329        -5.81879         0.54223
C          1.23173        -5.12911         0.98159
C          2.40291        -5.67631         0.15738
C          3.71555        -4.94375         0.38946
C          4.88973        -5.57455        -0.03587
C          6.08355        -4.80890        -0.17217
C          7.25656        -5.42369        -0.77284
C          8.37342        -4.68116        -1.08988
C         -7.50927        -7.16214        -0.18913
C         -6.30340        -7.85000        -0.29517
C         -5.05936        -7.21635         0.07379
C         -3.86707        -7.89638        -0.07673
C         -2.59933        -7.24593         0.32136
C         -1.29117        -7.94377         0.12480
C         -0.01515        -7.16795         0.14542
C          1.19283        -7.85342        -0.08634
C          2.50564        -7.19977         0.29274
C          3.69040        -7.70018        -0.48865
C          4.84704        -6.96457        -0.50926
C          6.08218        -7.58172        -0.98177
C          7.23292        -6.84314        -1.06375
C         -6.23971        -9.20737        -0.78464
C         -5.05377        -9.87368        -0.91970
C         -3.79813        -9.24806        -0.58370
C         -2.57419        -9.90518        -0.74112
C         -1.30103        -9.30380        -0.45969
C         -0.08756        -9.91132        -0.72012
C          1.17943        -9.21581        -0.56057
C          2.37153        -9.80460        -0.95699
C          3.58750        -8.97817        -1.27742
C          4.90563        -9.71126        -1.30445
C          6.06170        -9.01770        -1.24596
O          7.28248        -2.50732        -1.59032
O          0.03687        11.26248        -1.10873
H          0.18523        11.03858        -2.05006
O          1.04692         3.06775        -0.75701
O         -3.74595         9.10575        -2.94748
H         -3.16142         8.39097        -3.27740
O         -1.93493        -7.86744         1.46314
O          2.73265        -7.57880         1.67272
H          2.19352        -6.97813         2.24981
O         -5.17973        -6.23590         2.22269
H         -5.10118        -5.40944         2.74559
O         -4.25061         4.96314        -2.19361
O          3.17485        -1.17379         2.89619
O          3.74332         8.92027        -2.58339
H          3.34486         8.03110        -2.73704
O          0.59392        -3.16751        -0.46426
O         -3.75704        -0.65501        -1.01357
O          2.28354         6.53078         2.26779
H          2.14704         5.78433         2.89102
O          3.33984        -8.56381        -2.68016
H          3.97098        -7.84122        -2.88769
O          5.58706        -1.75680         2.74141
H          4.81361        -1.81434         3.35403
O          6.59918         3.24065        -0.54422
O         -6.92327         0.67130        -1.54886
O         -1.65786         0.30473         2.17152
O         -1.92063        -5.18390        -0.88118
O          6.43275         5.33772         2.48397
H          6.43877         6.29488         2.69456
O         -9.86130         1.84677         1.79261
H         -9.88626         1.03366         2.33948
O          8.34953         1.32675         2.18904
O        -10.31378         2.49735        -1.77896
H         -9.55143         2.03395        -2.18489
O          2.07768        -5.45195        -1.23727
H          1.69179        -4.55197        -1.34177
O          2.84575         3.58070         2.43851
O          3.12355         6.70294        -1.33176
O         -1.65823         8.01134         1.19345
O          1.36238        -5.38406         2.39865
H          0.50062        -5.01548         2.78545
O          1.02433         0.25672         2.40735
O         -1.80517         0.92282        -1.46379
H         -2.34062         0.19877        -1.86946
O         -1.04734        -4.19782         2.53708
O         -0.89155         5.34651         1.25004
O          9.77057        -1.45385         0.77023
O         -5.20201        -2.05935         2.15248
H         11.97244        -0.68852        -1.61366
H         11.81621         1.51641        -0.79618
H         10.85307         3.37934        -0.13243
H          9.70589         5.58489         0.14444
H          8.42130         7.67814        -0.22840
H          7.11423         9.85717        -0.42253
H          5.04517        10.94165        -1.11900
H          2.47221        10.95239        -1.01125
H         -0.08439        10.34708         0.72713
H         -2.32071        10.89619        -1.47486
H         -4.86970        10.93146        -0.94803
H         -6.96684         9.72886        -0.50158
H         -8.25940         7.59746        -0.53152
H         -9.55288         5.49368        -0.37697
H        -10.81492         3.42338        -0.00578
H        -12.19324         1.19689         0.23233
H        -12.20359        -1.24849         0.13046
H        -10.97958        -3.41723         0.16678
H         -9.71732        -5.56904        -0.09827
H         -8.44597        -7.67353        -0.45881
H         -7.18238        -9.70655        -1.05413
H         -5.04265       -10.90757        -1.29495
H         -2.57790       -10.93185        -1.13875
H         -0.06469       -10.92405        -1.14980
H          2.35848       -10.84754        -1.31245
H          4.90881       -10.79287        -1.50585
H          7.02828        -9.52965        -1.36844
H          8.16678        -7.31684        -1.40232
H          9.26079        -5.18817        -1.49788
H         10.00463        -2.65024        -2.36168
