         762
 CSIRO Nanostructure Databank - Neutral Graphene Oxide Data Set
C         22.68585        25.59064         3.50567
C         21.82136        26.63231         3.97736
C         23.26038        28.32668         2.91215
C         22.01612        27.91885         3.58076
C         23.16601        29.43714         1.90598
C         22.22397        30.56189         2.07872
C         23.11970        31.74205         0.11692
C         22.15353        31.57410         1.17312
C         23.12989        32.89725        -0.69229
C         21.93527        33.65570        -0.93209
C         23.17758        35.45193        -2.05887
C         21.95210        34.81899        -1.65013
C         23.17148        36.71572        -2.67296
C         21.96559        37.33593        -3.12841
C         23.18630        39.39320        -3.65886
C         22.00172        38.57380        -3.70755
C         23.97012        41.46429        -4.65713
C         23.78519        41.93870        -5.96785
C         25.34059        43.73079        -5.53476
C         24.53505        43.00730        -6.43749
C         25.85732        45.05664        -5.89745
C         26.00088        45.38765        -7.25944
C         26.22243        47.71447        -6.70670
C         26.23794        46.69917        -7.66216
C         25.61772        23.04497         2.58223
C         25.53543        24.37892         2.31928
C         23.79823        25.88670         2.76627
C         25.45644        27.54506         1.63947
C         24.30721        27.24632         2.56947
C         25.49822        28.74021         0.97559
C         24.24763        29.55727         0.86859
C         25.56584        31.34514        -0.50866
C         24.23452        30.79307         0.02013
C         25.56157        32.74795        -0.90842
C         24.38348        33.42349        -1.19294
C         25.64023        35.40959        -1.97379
C         24.42742        34.77204        -1.76024
C         25.71525        36.79226        -2.49142
C         24.43159        37.46605        -2.89706
C         25.44118        39.78389        -2.48112
C         24.36637        38.94707        -3.09653
C         25.45524        41.31554        -2.56599
C         24.94543        42.01157        -3.79961
C         26.01992        44.17659        -3.18875
C         25.51366        43.24487        -4.22673
C         26.12864        45.67593        -3.44331
C         26.05225        46.04910        -4.89739
C         26.71853        48.82887        -3.49413
C         26.12219        47.38030        -5.34885
C         26.68281        50.26228        -3.34949
C         28.04321        23.12106         2.83309
C         26.87268        22.42894         2.89975
C         28.02912        24.57700         2.54920
C         26.70228        25.29226         2.33351
C         27.96794        27.23128         1.16418
C         26.64331        26.61410         1.57806
C         28.01320        28.69652         0.90598
C         26.75466        29.21795         0.22259
C         27.94848        31.43540         0.15223
C         26.80438        30.71729         0.00629
C         27.98860        32.86150        -0.27223
C         26.87751        33.34835        -1.15191
C         28.18682        35.53037        -1.65412
C         26.92194        34.72009        -1.74973
C         28.06543        37.01007        -1.69407
C         26.89383        37.60965        -2.10093
C         27.90562        39.89211        -1.67512
C         26.70322        39.07726        -1.96722
C         27.77881        41.27199        -1.42425
C         26.54204        42.05063        -1.79419
C         27.24710        44.35796        -1.11348
C         26.69195        43.54183        -2.03963
C         27.52922        45.81502        -1.25391
C         26.88415        46.54853        -2.41148
C         28.29353        48.59986        -1.62900
C         27.35129        47.96852        -2.61528
C         28.32484        50.14129        -1.56555
C         27.36504        50.89287        -2.36741
C         30.67405        20.40885         2.96208
C         29.47370        21.02149         2.92500
C         30.59709        23.23385         2.90681
C         29.34054        22.48109         3.28715
C         30.58742        24.55971         2.50417
C         29.31054        25.15056         2.02172
C         30.47001        27.37020         1.60657
C         29.28113        26.55011         1.43901
C         30.36879        28.83088         1.70012
C         29.10855        29.45418         1.19033
C         30.49481        31.51203         0.58635
C         29.08879        30.97092         1.04285
C         30.51801        32.99886         0.25151
C         29.26496        33.63305        -0.22582
C         30.51396        35.78457        -0.58420
C         29.38470        34.92158        -0.98554
C         30.45307        37.17100        -0.87978
C         29.22749        37.79637        -1.32923
C         30.39728        39.95003        -1.43818
C         29.14437        39.19712        -1.45565
C         30.29675        41.50556        -1.26721
C         28.95223        41.99366        -1.00513
C         30.01035        44.09568        -0.23985
C         28.91691        43.21509        -0.33474
C         29.64195        45.49547         0.04305
C         28.74407        46.34843        -0.54188
C         30.18811        48.59451         0.00997
C         28.80492        47.89121        -0.33008
C         30.16267        50.08068         0.16670
C         29.06233        50.88876        -0.48352
C         30.28561        52.97774         0.06185
C         29.26910        52.35123        -0.58198
C         33.22079        19.00348         3.24479
C         33.18721        20.45508         3.32547
C         31.91165        21.14799         3.19023
C         33.05624        23.36427         3.22399
C         31.84360        22.54091         3.11274
C         33.01731        24.73850         2.68180
C         31.82073        25.29537         2.29028
C         32.99420        27.53765         1.75050
C         31.75920        26.68959         1.74657
C         32.96425        29.02780         1.80966
C         31.62547        29.67615         1.90120
C         32.91485        31.83975         1.32822
C         31.57044        31.19438         1.65424
C         32.91303        33.13491         0.86905
C         31.66832        33.74849         0.35173
C         32.80790        35.97363         0.19434
C         31.65616        35.17654        -0.01741
C         32.82510        37.34078        -0.16850
C         31.63029        37.95761        -0.65516
C         32.78744        40.14218        -0.82041
C         31.62605        39.34119        -0.96501
C         32.73405        41.57478        -0.85312
C         31.47505        42.25057        -0.80619
C         32.58097        44.45288        -0.47750
C         31.33919        43.61150        -0.41610
C         32.66190        45.86469        -0.02041
C         31.57447        46.59158         0.36560
C         32.68059        48.74953         0.05308
C         31.42799        48.01217         0.17328
C         32.62610        50.16726         0.28139
C         31.41784        50.81808         0.44908
C         32.58362        52.92307         1.04382
C         31.42374        52.26119         0.61258
C         32.75180        54.36595         0.98312
C         35.68327        18.91958         3.39116
C         34.36775        18.28619         3.20342
C         35.68751        20.44216         3.48605
C         34.38969        21.16001         3.37939
C         35.65165        23.39393         3.10092
C         34.38374        22.63602         3.40125
C         35.53890        24.66465         2.27049
C         34.30335        25.48962         2.61888
C         35.48461        27.56853         1.62207
C         34.27382        26.91648         2.20948
C         35.42956        29.07507         1.50131
C         34.13065        29.73936         1.79022
C         35.47272        31.98999         1.81279
C         34.13024        31.24427         2.01957
C         35.26055        33.45064         1.69711
C         34.09425        33.95370         1.10951
C         35.24932        36.24912         0.90452
C         33.96694        35.40897         0.90574
C         35.27969        37.53976         0.22137
C         34.04808        38.11940        -0.15229
C         35.24600        40.22030        -0.62151
C         34.02630        39.49347        -0.52671
C         35.18368        41.63357        -0.87066
C         33.96060        42.30686        -0.84069
C         35.16346        44.56244        -0.68996
C         33.89467        43.79034        -0.85237
C         35.17857        45.90518        -0.44030
C         33.97682        46.60459         0.12247
C         35.11903        48.85628        -0.40686
C         33.87777        48.08709        -0.15999
C         35.14840        50.31907         0.14462
C         33.87450        50.78190         0.75371
C         35.09460        52.86390         1.66745
C         33.81201        52.16282         1.35335
C         34.76966        54.17074         2.40506
C         33.81406        54.97564         1.55754
C         38.11486        16.13982         2.31934
C         36.99010        16.82675         2.87999
C         37.84958        18.95893         2.04730
C         36.87321        18.19076         2.84500
C         38.04260        20.40217         2.39654
C         36.97616        21.16485         3.14250
C         38.08296        23.36101         2.35521
C         36.95549        22.66596         3.00724
C         38.05194        24.75429         2.13280
C         36.82720        25.44800         2.22500
C         38.04396        27.63995         1.92122
C         36.77911        26.84109         1.74549
C         37.98351        29.08791         1.50277
C         36.71164        29.86601         1.53561
C         38.07144        31.86532         2.41540
C         36.69806        31.33551         1.83852
C         38.26455        33.34717         2.20357
C         36.32685        34.39442         1.96688
C         37.78014        36.31986         1.20358
C         36.49273        35.58972         1.29548
C         37.78377        37.59072         0.44240
C         36.51991        38.21152         0.03606
C         37.73928        40.18539        -0.88167
C         36.48371        39.53237        -0.47185
C         37.72830        41.65333        -1.20431
C         36.41520        42.37969        -1.21204
C         37.69633        44.59157        -0.81540
C         36.41960        43.88900        -1.08113
C         37.66690        46.00868        -0.62735
C         36.40879        46.67229        -0.51140
C         37.59844        48.74302        -0.80720
C         36.37514        48.07792        -0.57590
C         37.54174        50.82819        -0.12260
C         36.37619        51.06904         0.54441
C         37.61607        52.69460         1.97081
C         36.30815        52.22236         1.47940
C         37.78926        53.59577         3.00872
C         36.00138        54.88131         2.87709
C         37.80289        56.53439         3.19808
C         36.54329        56.09888         2.62126
C         40.43601        14.70792         1.18003
C         40.33981        16.08415         1.19744
C         39.13228        16.77788         1.63980
C         40.18727        18.98674         0.87824
C         39.00546        18.22735         1.37444
C         40.11908        20.47174         0.80126
C         39.05222        21.17224         1.59772
C         40.53929        23.27939         1.65590
C         39.28908        22.57340         2.06819
C         40.42599        24.72801         1.41083
C         39.25771        25.44364         1.63489
C         40.37152        27.56560         1.00417
C         39.23930        26.86923         1.41541
C         40.41336        28.99939         1.07472
C         39.19092        29.73608         1.35578
C         40.56677        31.86736         1.49644
C         39.38731        31.05384         2.06343
C         40.48913        33.34975         1.21656
C         39.20275        34.04479         1.49645
C         40.32455        36.16603         0.66260
C         39.15921        35.52956         1.30451
C         40.27155        37.54223         0.34940
C         39.00249        38.22123         0.20582
C         40.26638        40.35314        -0.38347
C         39.04095        39.52408        -0.50257
C         40.22278        41.74380        -0.56850
C         38.99153        42.44781        -0.99462
C         40.13246        44.64127        -0.62666
C         38.91191        43.91198        -0.77172
C         40.13725        46.06323        -0.57819
C         38.88867        46.74931        -0.54749
C         40.07486        48.98146        -0.34638
C         38.85947        48.17584        -0.56720
C         40.05856        50.30031         0.08341
C         38.91118        51.31834         0.20744
C         40.21637        52.50926         2.07385
C         38.86873        52.02210         1.54649
C         40.20745        53.82359         2.72734
C         39.01129        54.34273         3.19718
C         40.13621        56.42545         4.02402
C         38.88635        55.76550         3.54794
C         40.14013        57.81977         4.48313
C         42.48227        14.70177        -0.16138
C         41.49488        14.03168         0.49848
C         42.63771        16.15205        -0.01325
C         41.48853        16.87806         0.71414
C         42.33406        19.03128        -0.33651
C         41.30907        18.32810         0.46618
C         42.37021        20.56089        -0.34078
C         41.36497        21.22363         0.49131
C         42.78460        23.21190         0.53007
C         41.57285        22.53820         0.86821
C         42.90066        24.59060         1.14449
C         41.61373        25.34547         0.81312
C         42.86773        27.55077         0.54057
C         41.58797        26.83804         0.61358
C         42.83507        28.95978         0.50816
C         41.61816        29.68665         0.79977
C         42.79662        31.82165         0.38930
C         41.67062        31.11868         0.84693
C         42.77860        33.26618         0.20143
C         41.58082        34.01135         0.48546
C         42.69561        36.13190        -0.04542
C         41.51796        35.42375         0.34413
C         42.70531        37.53065        -0.08893
C         41.48478        38.24606         0.01743
C         42.74226        40.37581        -0.25206
C         41.49689        39.66238        -0.17468
C         42.69024        41.84154        -0.27501
C         41.40510        42.52759        -0.50178
C         42.56695        44.67668        -1.03251
C         41.36529        43.92173        -0.62911
C         42.56604        46.14870        -0.89668
C         41.36058        46.82159        -0.64720
C         42.57505        48.96111        -0.57671
C         41.36591        48.27538        -0.51705
C         42.62856        50.38130        -0.15831
C         41.34905        51.00907         0.29773
C         42.68914        52.86238         1.33250
C         41.52201        51.91759         1.52567
C         42.58359        54.27195         1.75066
C         41.36028        54.73340         2.50163
C         42.60916        56.81024         3.37096
C         41.45348        55.89805         3.43778
C         42.52870        58.03281         3.98109
C         41.29718        58.53281         4.52944
C         44.32697        16.28106        -1.89101
C         43.51275        16.92629        -0.94690
C         44.40196        19.12240        -1.68512
C         43.50654        18.34059        -0.89532
C         44.63161        20.55666        -1.41149
C         43.64497        21.23048        -0.65696
C         45.08561        23.22191        -0.40033
C         43.82331        22.56783        -0.18571
C         45.23926        24.61282        -0.02032
C         44.23576        25.35400         0.87421
C         45.26066        27.51195         0.16189
C         44.08005        26.81708         0.42852
C         45.24020        28.93611         0.04618
C         44.03314        29.67564         0.22862
C         45.18614        31.78696        -0.29261
C         44.00819        31.09913         0.08912
C         45.16061        33.22427        -0.56859
C         43.91034        33.91378        -0.34046
C         45.06780        36.10032        -1.06843
C         43.84618        35.36646        -0.58286
C         45.23333        37.51407        -0.59898
C         43.99638        38.26230        -0.17069
C         45.21039        40.44656        -0.60366
C         43.98705        39.73887        -0.28926
C         45.19744        41.80786        -0.86465
C         43.97242        42.57078        -0.61503
C         45.10928        44.70786        -1.36870
C         43.86222        43.93263        -1.20694
C         44.86156        46.09419        -1.65680
C         43.76975        46.84406        -1.21319
C         45.21292        49.04695        -0.79503
C         43.84456        48.32407        -1.03813
C         45.19309        50.23589         0.13845
C         43.89602        50.88167         0.49415
C         45.15995        52.98359         1.16400
C         43.89614        52.29693         0.98098
C         45.14826        54.32077         1.72673
C         43.86637        55.04746         1.88823
C         45.14534        56.81257         3.21209
C         43.85654        56.35513         2.68541
C         45.03281        17.03311        -2.83123
C         46.87402        19.61892        -3.34433
C         45.04705        18.42506        -2.72204
C         47.00690        20.61716        -2.39353
C         45.89650        21.22367        -1.64972
C         47.48541        23.10631        -1.02657
C         46.12625        22.49982        -1.04229
C         47.62070        24.60083        -0.71403
C         46.39097        25.30709        -0.31712
C         47.68480        27.44460        -0.59744
C         46.56730        26.73586         0.13230
C         47.70927        28.88691        -0.28956
C         46.43815        29.65566        -0.20430
C         47.59708        31.72054        -0.91801
C         46.39499        31.04393        -0.38387
C         47.53589        33.16035        -1.33430
C         46.30613        33.90382        -1.01097
C         47.63087        36.10241        -1.31704
C         46.31993        35.34000        -1.51471
C         47.64406        37.54527        -1.19675
C         46.46252        38.24936        -0.93847
C         47.71637        40.39698        -1.12295
C         46.52989        39.69711        -0.51683
C         47.69270        41.83079        -1.41947
C         46.37188        42.57715        -1.35965
C         47.64805        44.78413        -1.17262
C         46.34623        44.07699        -1.33215
C         47.79426        46.26903        -1.18252
C         46.73553        47.14117        -1.47898
C         47.70832        48.95153        -0.25173
C         46.54624        48.37283        -0.83036
C         47.67645        50.31803         0.25844
C         46.45775        50.97769         0.40748
C         47.64136        52.96389         1.25543
C         46.39316        52.31861         0.93163
C         47.67216        54.39509         1.76051
C         46.31995        54.96024         2.10923
C         46.30021        56.20253         2.82910
C         49.24894        19.34991        -3.82614
C         47.95958        19.01752        -4.07243
C         49.56057        20.36552        -2.81086
C         48.40781        21.07688        -2.14262
C         49.77691        23.19316        -1.98402
C         48.61030        22.49070        -1.74463
C         49.87084        24.62831        -1.75083
C         48.79495        25.33660        -1.23676
C         50.00260        27.55161        -1.47509
C         48.78704        26.79744        -1.12877
C         50.10864        28.87686        -1.13949
C         48.98953        29.60694        -0.50818
C         50.15334        31.90212        -0.76417
C         48.91546        31.10587        -0.59370
C         50.11264        33.39666        -1.10318
C         48.80484        33.93099        -1.75557
C         50.09485        36.11767        -1.59112
C         48.82171        35.42695        -1.49302
C         50.11443        37.54473        -1.48970
C         48.90236        38.25080        -1.29208
C         50.15735        40.40805        -1.45706
C         48.91384        39.69624        -1.28280
C         50.17395        41.84288        -1.41882
C         48.96784        42.55124        -1.39486
C         50.22468        44.78368        -1.39443
C         48.94704        44.00117        -1.13701
C         50.22753        46.14396        -0.72483
C         48.97926        46.88159        -0.70119
C         50.22485        49.00381        -0.22489
C         48.93325        48.24976        -0.33607
C         50.14096        50.26716         0.58395
C         48.91595        50.94961         0.65684
C         50.12857        53.02501         1.53608
C         48.85070        52.29695         1.15188
C         49.84525        53.84508         2.78181
C         48.68263        54.49353         2.88640
C         51.97098        20.39469        -3.36049
C         50.86093        21.07477        -2.95097
C         52.27743        23.20616        -2.76658
C         50.90779        22.53465        -2.71046
C         52.40097        24.57264        -2.13896
C         51.09614        25.35683        -2.24203
C         52.51428        27.55295        -2.22204
C         51.15775        26.85053        -2.11627
C         52.52952        29.00495        -1.88758
C         51.39387        29.60285        -1.17430
C         52.61542        31.86473        -1.33377
C         51.41765        31.11702        -0.96098
C         52.61361        33.28016        -1.41435
C         51.33536        33.91949        -1.89110
C         52.56027        36.11082        -1.78091
C         51.33318        35.42946        -1.76833
C         52.59162        37.54713        -1.69950
C         51.36453        38.25576        -1.57803
C         52.63037        40.38079        -1.53711
C         51.38239        39.68484        -1.52416
C         52.65827        41.81037        -1.38007
C         51.44497        42.54645        -1.32783
C         52.67206        44.60908        -0.84040
C         51.46722        43.95708        -1.13354
C         52.67374        46.01188        -0.43699
C         51.41784        46.75607        -0.36730
C         52.59400        48.76947         0.46522
C         51.43153        48.14470         0.06105
C         52.59047        50.09838         1.06240
C         51.35698        50.83040         1.11507
C         52.50816        52.67320         2.20734
C         51.33499        52.12749         1.68463
C         53.24583        21.03275        -3.49253
C         55.41796        23.42059        -2.35044
C         53.41888        22.34274        -3.14977
C         55.03519        24.56096        -1.69285
C         53.71073        25.25326        -1.84159
C         55.18816        27.34954        -1.78296
C         53.81061        26.75041        -2.07888
C         55.42607        28.80274        -1.86949
C         53.61993        29.81806        -2.08750
C         55.07285        31.76237        -1.37754
C         53.78623        31.14616        -1.57734
C         55.05300        33.20591        -1.25407
C         53.82130        33.94715        -1.45343
C         55.01626        36.06207        -1.56223
C         53.82380        35.38737        -1.65584
C         55.12134        37.49395        -2.00831
C         53.83302        38.25746        -1.74328
C         55.12395        40.40540        -1.84687
C         53.84873        39.65437        -1.67467
C         55.16317        41.82436        -1.45372
C         53.91334        42.49216        -1.24312
C         55.14424        44.52309        -0.67827
C         53.90395        43.87441        -0.90818
C         55.13853        45.94690        -0.34031
C         53.85750        46.64438        -0.13147
C         55.12534        48.65146         0.89023
C         53.87869        48.06768         0.28084
C         55.15091        50.03599         1.53636
C         53.75996        50.65963         1.64169
C         53.69701        51.94239         2.20090
C         57.57045        23.29501        -1.19896
C         56.66408        22.76468        -2.10259
C         57.30284        24.48907        -0.50539
C         55.94094        25.15134        -0.61359
C         57.18066        27.40877        -0.17674
C         56.20372        26.61728        -0.97361
C         57.19419        28.79298        -0.21023
C         56.26234        29.54547        -1.05687
C         57.36384        31.73008        -0.48085
C         56.22782        31.01706        -1.03494
C         57.40011        33.19487        -0.53523
C         56.21516        33.90081        -0.94148
C         57.37317        36.15984        -0.57311
C         56.15343        35.37648        -0.92068
C         57.49426        37.56206        -1.05808
C         56.38967        38.20812        -1.55972
C         57.71548        40.38756        -1.61926
C         56.45357        39.65118        -1.86013
C         57.68264        41.77768        -1.42141
C         56.40161        42.47243        -1.25532
C         57.54553        44.41900        -0.16652
C         56.37307        43.83665        -0.77638
C         57.47480        45.55118         0.61996
C         56.37948        46.48647         0.38198
C         57.14222        47.94119         2.38470
C         56.15451        47.63721         1.30323
C         56.97984        49.24364         3.08831
C         55.97818        50.09185         2.80635
C         59.49305        24.50817         0.62940
C         58.32212        25.16385         0.24214
C         59.40662        27.33909         1.14561
C         58.16406        26.60076         0.59074
C         59.44950        28.84309         1.05427
C         58.24815        29.58599         0.46791
C         59.60463        31.71056         0.64024
C         58.39646        31.02618         0.13238
C         59.71434        33.22605         0.41135
C         58.53126        33.90756        -0.14499
C         59.94239        36.04807        -0.30839
C         58.59246        35.38367        -0.18489
C         59.99638        37.41863        -0.90002
C         58.81257        38.18672        -1.11481
C         60.19558        39.99315        -1.94420
C         58.91293        39.54556        -1.54978
C         60.15373        42.22138        -1.65371
C         58.90465        42.54640        -1.19035
C         59.99694        44.05143         0.54302
C         58.90342        43.91629        -0.54060
C         59.94273        45.41750         1.21508
C         58.58908        45.93136         1.52718
C         59.70089        47.88095         2.71292
C         58.44860        47.17392         2.40063
C         60.62727        25.19984         1.12622
C         60.64061        26.56173         1.27230
C         60.75011        29.54514         0.96438
C         60.82197        30.87531         0.77883
C         61.02064        33.87253         0.14112
C         61.11686        35.14021        -0.30865
C         61.24891        37.96038        -1.21813
C         61.35050        39.22933        -1.78293
C         61.35930        42.88120        -1.17455
C         61.32227        43.71206        -0.11128
C         61.02758        46.05908         1.73595
C         60.90455        47.31781         2.43063
O         43.50070        42.49865         0.77042
O         32.57685        26.91842         0.49213
O         39.49248        51.39529         2.71112
O         49.57069        31.70613         0.56921
O         51.71236        30.18909         0.13670
O         37.79262        18.62917         0.63065
O         41.43156        25.88127        -0.52284
O         25.21079        41.83441        -1.22340
O         58.44183        29.43296         1.91787
O         34.30906        36.24539         2.05591
O         47.92870        23.57089         0.28686
O         36.05359        26.90977         0.44775
O         24.43993        28.13170         3.74218
O         29.25718        34.91479        -2.44596
O         40.38220        22.77345         3.02638
O         44.89699        25.43230         2.13608
O         44.50975        49.15804        -2.05681
O         25.34146        36.86155        -3.92111
O         45.80753        46.74476        -2.44004
O         55.94985        47.11644         2.66185
O         58.29550        45.83700         2.97460
O         36.28572        43.23062        -2.39070
O         52.84038        24.74738        -0.73732
O         43.99964        35.84281        -2.02639
O         49.20510        20.06991        -1.41202
O         38.61362        36.32539         2.39121
O         36.70028        54.04034         3.77250
O         36.54758        23.41497         4.22634
O         25.85690        48.44874        -4.50259
O         42.75858        16.58720         1.38296
O         27.14444        33.51812        -2.57823
O         37.28947        34.04952         2.90268
O         25.56987        39.37740        -1.07257
O         56.16719        46.73545        -1.03066
O         54.69389        29.40591        -2.89312
O         46.86610        42.10897        -2.67078
O         33.05800        44.38395        -1.89786
O         60.33532        41.21669        -2.61825
O         29.41085        25.34798         0.57836
O         24.91922        45.12353        -2.85736
O         38.90945        21.05093         0.16105
O         59.24394        35.99302         0.98143
O         48.27489        44.30808         0.11639
O         33.69709        23.23250         4.54708
O         43.81580        56.34106         1.21541
O         51.32688        23.29352        -3.89327
O         23.03819        28.77895         0.57924
O         38.49734        39.41368        -1.87021
O         38.55436        42.00819        -2.33806
O         33.76205        50.95460         2.20659
O         34.95844        50.02840        -1.26582
O         44.49136        49.90550         1.40552
O         56.32943        35.98399         0.44477
O         44.93023        37.70313         0.85120
O         35.82162        19.60165         4.67665
O         47.35854        32.05276        -2.32304
O         29.31549        49.35417        -2.34258
O         48.64002        29.15128         0.83548
O         42.99040        44.11745        -2.36275
O         24.29480        24.87086         1.93184
O         37.53199        50.05442        -1.28735
O         55.79089        40.07018        -3.12151
O         50.83323        26.19213        -3.39616
O         28.95863        50.48873         0.90970
O         27.69752        43.76180         0.08165
O         38.14858        20.63676         3.82780
O         41.52507        55.04837         1.07831
O         30.48204        46.03069         1.01578
O         35.98103        29.58899         0.24872
O         41.02662        55.54692         4.78653
O         28.24364        33.78207         0.86686
O         39.86089        30.43553         3.24566
O         26.27071        46.55361        -1.07623
O         30.82582        29.30524         3.06346
O         30.50651        40.87096        -2.55760
O         54.67950        22.87421        -3.40229
O         53.27622        27.13544        -3.38152
O         58.31735        26.88188         2.00317
O         54.88969        48.81669        -0.53083
O         34.42169        26.55828         3.61636
O         24.69348        30.51880        -1.33065
O         27.40365        25.38879         3.61269
O         41.07897        32.81056         2.47630
O         41.73206        19.81745        -1.42999
O         22.95878        40.62218        -4.21639
O         59.46404        32.66705         1.74391
O         41.98247        51.42468        -0.95961
O         45.62198        19.16798        -3.76537
O         27.14584        26.47068         0.21351
O         56.33812        26.67727        -2.44414
O         48.81651        33.82689        -3.20323
H         47.93151        34.14587        -3.50629
O         33.90211        31.41687         3.45258
H         32.95961        31.68535         3.59179
O         55.29319        25.07183         0.67582
H         54.34803        24.83169         0.55072
O         29.28402        22.53373         4.75205
H         30.13516        22.18810         5.09682
O         30.87904        30.77341        -0.59368
H         30.30256        31.03129        -1.34331
O         50.20835        34.08572         0.16863
H         49.91595        33.46136         0.87564
O         34.03947        53.79299         3.60442
H         34.68126        53.34810         4.20067
O         35.30013        24.19788         0.90379
H         35.40063        24.98186         0.30827
O         46.82937        39.65580         0.93011
H         46.18790        39.01309         1.32816
O         41.99625        51.02069         2.57507
H         41.20424        50.62240         3.00448
O         59.31723        44.86967        -1.57638
H         58.60674        44.91459        -2.25097
O         28.75800        31.50658         2.34553
H         28.62244        32.48018         2.22944
O         51.33348        33.53414        -3.28217
H         50.48483        33.83062        -3.69289
O         59.77004        43.08519         1.59795
H         59.26493        43.51663         2.31974
O         27.84802        48.21272         0.68142
H         28.09557        47.75511         1.51043
O         50.47619        49.47803        -1.61447
H         51.27025        50.05505        -1.58690
O         50.49611        53.92857         0.45782
H         49.75927        54.58627         0.36107
O         39.23402        52.37612        -0.74210
H         39.32961        51.97003        -1.63024
O         42.79134        24.34792         2.56582
H         43.67812        24.62394         2.94207
O         26.72762        28.68929        -1.12012
H         26.71548        27.70375        -1.05596
O         34.25058        46.53789         1.58574
H         33.53759        47.02893         2.04990
O         48.15995        55.25948         0.67219
H         47.47271        55.27271        -0.02773
O         37.83767        31.68540         3.81792
H         38.60428        31.12578         4.13945
O         31.22769        31.82527         2.90874
H         30.59556        31.22159         3.37358
O         55.24574        37.42800        -3.47119
H         55.35356        38.36270        -3.78096
O         46.25473        35.19364        -2.97311
H         45.29351        35.12811        -3.19743
O         38.20555        27.73516         3.37732
H         38.88560        28.43071         3.55675
O         55.89358        50.89285         0.61951
H         55.59303        50.65587        -0.28837
O         47.07368        26.66739         1.48947
H         46.35945        26.19329         2.02002
O         50.21264        45.04065        -2.83507
H         51.00039        45.58013        -3.05844
H         22.35908        24.54604         3.58713
H         20.90651        26.35280         4.51753
H         21.23824        28.67489         3.75482
H         21.54310        30.55305         2.94081
H         21.40107        32.36295         1.31560
H         20.97301        33.24886        -0.59167
H         20.99685        35.32094        -1.85208
H         21.01402        36.79024        -3.09036
H         21.09170        39.02431        -4.12483
H         23.02656        41.46400        -6.60297
H         24.38454        43.36448        -7.46439
H         25.91524        44.59998        -8.01938
H         26.27428        48.77073        -6.99915
H         26.35507        46.93929        -8.72723
H         24.70737        22.43387         2.54806
H         25.98036        50.80967        -3.99201
H         26.86533        21.36812         3.18304
H         27.18897        51.95627        -2.15955
H         30.71595        19.32880         2.77120
H         28.56931        20.42412         2.74315
H         30.31697        54.07613         0.04480
H         28.51792        52.95961        -1.10632
H         32.27550        18.45772         3.13649
H         32.00933        54.97362         0.44592
H         34.32613        17.20391         3.01341
H         33.93453        56.06693         1.49402
H         38.18137        15.05973         2.50848
H         36.24473        16.22696         3.42134
H         37.91045        57.62639         3.30004
H         35.99146        56.82588         2.00827
H         39.61594        14.09340         1.57568
H         39.19483        58.28449         4.79789
H         43.17281        14.14440        -0.80866
H         41.43724        12.93718         0.41699
H         43.39357        58.71084         3.97043
H         41.28785        59.56162         4.91583
H         44.34484        15.18600        -1.96085
H         45.17677        57.66320         3.90692
H         45.56458        16.54342        -3.65657
H         47.25885        56.62396         3.16157
H         50.05561        18.94614        -4.45369
H         47.70293        18.29068        -4.85475
H         50.59764        53.90702         3.58219
H         48.45025        55.09162         3.77926
H         51.91142        19.31727        -3.56688
H         52.51007        53.70114         2.59455
H         54.10590        20.45059        -3.84538
H         54.61127        52.40484         2.59674
H         58.54760        22.80478        -1.08539
H         56.90838        21.86249        -2.67721
H         57.60586        49.41969         3.97684
H         55.86001        50.98952         3.43193
H         59.58083        23.42276         0.48490
H         59.64691        48.88981         3.14725
H         61.54555        24.62660         1.31589
H         61.58119        27.07006         1.52541
H         61.67761        28.96157         1.05333
H         61.80503        31.36760         0.78188
H         61.93557        33.26892         0.23180
H         62.10594        35.53257        -0.58438
H         62.16423        37.37722        -1.05877
H         62.32014        39.62908        -2.10425
H         62.31529        42.60623        -1.64270
H         62.25739        44.10420         0.31400
H         62.04083        45.66628         1.57290
H         61.82868        47.85130         2.69409
