         276
 CSIRO Nanostructure Databank - Neutral Graphene Oxide Data Set
C        -11.03511         0.85497         0.82513
C        -10.03929         1.54594         0.01625
C         -8.99655         0.73964        -0.70245
C         -7.72822         1.44241        -1.09721
C         -6.42238         0.71009        -1.47927
C         -5.12770         1.31685        -0.93271
C         -3.87373         0.60535        -1.34899
C         -2.72441         1.42873        -1.92520
C         -1.34052         0.74061        -1.88105
C         -0.04374         1.50036        -1.83060
C          1.27988         0.73360        -1.83426
C          2.53680         1.43820        -1.43164
C          3.83132         0.70674        -1.75985
C          5.04702         1.44885        -1.26302
C          6.33389         0.68736        -1.31731
C          7.59080         1.45091        -0.96168
C          8.75649         0.54823        -1.21415
C         10.74125         1.79336        -0.68848
C         11.66251         0.70131        -0.23260
C        -10.05622         2.90354        -0.05885
C         -8.95442         3.68517        -0.74246
C         -7.68169         2.86536        -0.59908
C         -6.38103         3.52884        -0.32972
C         -5.09865         2.77435        -0.59560
C         -3.92571         3.61815        -1.00934
C         -2.68473         2.94721        -1.54443
C         -1.35243         3.68871        -1.40441
C         -0.07262         2.87180        -1.14290
C          1.23228         3.68064        -1.29895
C          2.52253         2.91372        -1.22270
C          3.80481         3.69481        -1.19722
C          5.08747         2.89077        -1.18117
C          6.36087         3.52371        -0.64381
C          7.60495         2.72354        -0.48787
C          8.84337         3.43143        -0.11246
C          9.98738         2.52489         0.18330
C         -8.80012         5.08134        -0.17205
C         -7.61153         5.69322         0.07575
C         -6.34412         4.99356        -0.08837
C         -5.13704         5.62270         0.10285
C         -3.90683         5.02988        -0.48507
C         -2.60695         5.73735        -0.32068
C         -1.33178         5.08352        -0.81391
C         -0.04820         5.58226        -0.18233
C          1.24148         5.07989        -0.75587
C          2.50394         5.88983        -0.42980
C          3.79574         5.08371        -0.63935
C          4.89743         5.41916         0.36177
C          6.26431         4.77577         0.15983
C          7.55401         5.50229         0.42105
C          8.82759         4.77569         0.13913
C         -7.56561         7.19364         0.31004
C         -6.32221         7.66969         1.07747
C         -5.04548         6.98484         0.61091
C         -3.84311         7.58646         0.85017
C         -2.55624         6.79699         0.78566
C         -1.31556         7.66741         0.51781
C         -0.05225         6.82206         0.66393
C          1.22157         7.47307         1.19883
C          2.50388         6.70344         0.87620
C          3.77734         7.51432         0.94857
C          4.95986         6.89811         0.67079
C          6.23947         7.60539         0.73030
C          7.44763         6.96815         0.59576
C         -6.15086         9.17511         1.00326
C         -4.97349         9.73858         1.30329
C         -3.79811         8.86101         1.66811
C         -2.46696         9.57605         1.64186
C         -1.28063         8.98477         1.26348
C         -0.02068         9.64930         1.34195
C          1.22526         8.97662         1.20271
C          2.44214         9.63424         1.26136
C          3.72914         8.89700         1.54946
C          4.98787         9.66675         1.23887
C          6.14349         9.05511         0.90833
C        -11.03281        -0.48045         1.00911
C        -10.06632        -1.36604         0.32037
C         -9.01391        -0.75633        -0.55606
C         -7.75313        -1.53226        -0.89482
C         -6.48696        -0.82734        -1.32150
C         -5.13697        -1.61041        -1.41137
C         -3.86144        -0.75025        -1.39466
C         -2.54693        -1.52075        -1.64862
C         -1.33871        -0.64042        -1.21376
C          0.03524        -1.37809        -1.24236
C          1.31203        -0.76974        -1.78705
C          2.58774        -1.43265        -1.32155
C          3.76050        -0.74130        -1.25961
C          4.88273        -1.30079        -0.37463
C          6.24793        -0.57724        -0.42830
C          7.54172        -1.26488        -0.09761
C          8.92949        -0.52798        -0.15567
C         10.17034        -1.42646        -0.36282
C         11.42784        -0.61027        -0.03954
C         -9.79900        -2.69280         0.91507
C         -8.74095        -3.43300         0.54765
C         -7.69197        -3.01565        -0.47251
C         -6.31709        -3.40234         0.11118
C         -5.07633        -2.72564        -0.36061
C         -3.78969        -3.49937        -0.28561
C         -2.55216        -2.88362        -0.89088
C         -1.24917        -3.41407        -0.26616
C          0.04828        -2.80768        -0.80783
C          1.25665        -3.66943        -1.04675
C          2.55838        -2.91894        -1.10435
C          3.68616        -3.53541        -0.27640
C          4.99867        -2.80975        -0.48675
C          6.25300        -3.48259        -0.29042
C          7.60145        -2.76128        -0.32707
C          8.70985        -3.40756         0.49099
C         10.06338        -2.68369         0.53694
C         -8.40244        -4.72399         1.22294
C         -7.50237        -5.62428         0.41808
C         -6.33423        -4.75892         0.82761
C         -4.99272        -5.44457         1.17570
C         -3.71056        -4.72075         0.63603
C         -2.44085        -5.51263         0.51034
C         -1.30548        -4.97726        -0.40660
C          0.05641        -5.67527        -0.22273
C          1.23600        -5.08111        -0.55200
C          2.55972        -5.85679        -0.75180
C          3.75852        -5.04988        -0.26488
C          4.84486        -5.60578         0.32436
C          6.15671        -4.88994         0.35085
C          7.21402        -5.25289         1.40144
C          8.54775        -4.57203         1.14996
C         -7.52792        -6.96709         0.32346
C         -6.26255        -7.73053         0.42178
C         -5.00988        -6.97976         0.78024
C         -3.72469        -7.65318         0.45158
C         -2.54581        -6.98929         0.53528
C         -1.30946        -7.78729         0.34326
C         -0.02698        -7.15004        -0.04280
C          1.22135        -7.95282         0.13603
C          2.51990        -7.30239        -0.20049
C          3.75035        -7.92366         0.38422
C          4.93962        -7.06182         0.61936
C          5.93464        -7.44519         1.74075
C          7.23322        -6.74968         1.40747
C         -6.16739        -9.12029        -0.09528
C         -5.00599        -9.78847        -0.12986
C         -3.66938        -9.08830        -0.06355
C         -2.51570        -9.88125         0.52189
C         -1.37489        -9.10736         1.11552
C         -0.03329        -9.78950         1.25630
C          1.16043        -9.19770         0.96088
C          2.42725        -9.78743         1.36999
C          3.63530        -9.18300         1.15749
C          4.90075        -9.72280         1.65392
C          5.99392        -8.95404         1.85020
O         -3.44508         6.06070        -1.45890
O         -8.76884         1.20346        -2.07904
O          6.54635        -4.77958        -1.02305
O          6.08164         3.60669        -2.06848
O          2.35067         5.96705         2.15690
O          2.48392         1.97307        -0.07050
O          6.77363        -0.62036         0.94245
O         -7.16599         2.89353         0.76037
O        -10.20030        -1.37421        -1.15016
O          4.91560        -7.92053        -0.53352
O          1.20324         4.80191        -2.19719
O         -5.66927        -2.36005         0.91139
O         -1.61157        -5.30505        -1.72469
O          2.00632        -3.54958        -2.29384
O         -3.31404        -3.86039        -1.63310
O         -5.74062        -7.72143         1.81437
O          6.87163         4.68570         1.48496
O          9.15527         0.38454        -2.38079
O          0.43687        -1.72920         0.12926
O          1.88067        -8.20170        -1.16163
O         -2.70995        -4.74528         1.71011
O         -0.88264        -7.84257        -1.04519
O         -7.42528        -1.36969        -2.30962
O         -0.16562         5.48775         1.27076
O          3.98815         4.86664        -2.05420
O         -7.18376        -4.42947         2.03851
O          1.36130         6.98309         2.61741
O         -4.93539         1.75008         0.44805
O         -0.67124         1.17029        -3.10141
O         -3.62901         3.61768        -2.42946
O          1.38939        -0.08605        -3.04165
O         -1.25541         4.85537        -2.24310
O          3.92363         0.70757        -3.20224
H          4.82351         0.37606        -3.44294
O         -3.11595         1.39768        -3.31676
H         -2.35817         1.72203        -3.85422
O         -6.27181         0.93143        -2.89948
H         -7.14045         0.71276        -3.30963
O          8.00293        -2.81764        -1.71976
H          7.87307        -3.74454        -2.02516
O         -5.12327        -2.26498        -2.69697
H         -5.30391        -1.58167        -3.37849
O         -7.88545        -3.83505        -1.63978
H         -7.69531        -3.26833        -2.42514
O         -9.23584         3.84067        -2.15379
H        -10.16601         4.12743        -2.25714
O          2.75678        -5.98419        -2.16965
H          2.21926        -6.75370        -2.46851
O         10.88142         2.18527        -1.98643
H         11.32785         1.48882        -2.50624
O          3.24906        -3.28761         1.11284
H          3.34005        -2.31145         1.28359
O          6.47584         0.13390        -2.66694
H          7.39666         0.29833        -2.98919
O         -4.93231        -5.40976         2.59728
H         -3.98648        -5.45247         2.86436
O         -3.29305        -9.03143        -1.48004
H         -2.48863        -8.46965        -1.59600
O          5.35931        -6.97927         2.97711
H          5.53589        -6.00908         3.04738
O         -7.60165         7.83631        -0.97714
H         -6.88452         7.46272        -1.53051
O         -2.37988        -1.81501        -3.03229
H         -3.05583        -2.49140        -3.27051
O          4.36385         4.74906         1.54160
H          5.06060         4.79317         2.23685
O         10.34071        -1.89383        -1.70404
H         10.04495        -1.17686        -2.31946
O          3.70457         8.70355         3.00854
H          2.95733         8.08757         3.20492
O         -0.16989         2.55495         0.27035
H          0.68522         2.15046         0.56019
O          4.33950        -0.94591         0.95048
H          5.10392        -0.88698         1.57326
O         -1.33811         8.02518        -0.89026
H         -2.26533         8.17795        -1.17201
O         -6.51103         7.30704         2.46522
H         -5.72462         7.65261         2.95869
O         -1.32038        -2.97405         1.10060
H         -0.46844        -3.15225         1.55043
O         -1.74966        -8.70503         2.47753
H         -2.16274        -9.47450         2.92236
O         -1.59482        -0.27030         0.15652
H         -1.35039        -1.03516         0.73794
O          2.52809         6.95027        -1.41438
H          2.55215         6.51446        -2.29789
O         -2.49588         6.18145         2.09461
H         -1.65632         5.65983         2.16253
O          9.09462         0.10690         1.11826
H          9.35092        -0.58514         1.77208
O         10.29335        -2.25783         1.89112
H         10.23589        -3.03700         2.48182
O          6.72030        -4.70227         2.65851
H          7.36738        -4.92556         3.36030
O         -3.97875         8.42680         3.06577
H         -3.39038         7.64124         3.18307
H         12.28885        -1.21912         0.28490
H         12.69333         1.04823        -0.02878
H         10.02076         2.21460         1.24009
H          9.76594         5.29170         0.39348
H          8.37588         7.55919         0.61509
H          7.05884         9.64859         0.76074
H          4.96501        10.75880         1.37445
H          2.44933        10.73345         1.33206
H         -0.00550        10.72084         1.59567
H         -2.43262        10.56693         2.12326
H         -4.84298        10.83154         1.29467
H         -7.02274         9.79399         0.74326
H         -8.48014         7.52140         0.86164
H         -9.72451         5.67790        -0.09837
H        -10.85649         3.45878         0.45643
H        -11.78095         1.47886         1.33991
H        -11.77190        -0.95132         1.67389
H        -10.49482        -3.06630         1.68279
H         -9.22940        -5.17486         1.81676
H         -8.48205        -7.51609         0.35096
H         -7.11462        -9.64488        -0.29648
H         -4.98625       -10.84398        -0.44040
H         -2.29531       -10.83761         0.01624
H         -0.02207       -10.72799         1.83439
H          2.38721       -10.72457         1.94589
H          4.94301       -10.80087         1.87409
H          6.91994        -9.40889         2.23192
H          7.76486        -7.19147         0.54569
H          9.41100        -4.99924         1.69007
H         10.87325        -3.40666         0.23936
