         488
 CSIRO Nanostructure Databank - Neutral Graphene Oxide Data Set
C         37.47166        50.05315         0.80452
C         36.27474        50.73206         1.01224
C         37.51138        52.74160         1.51188
C         36.29137        52.08015         1.37910
C         39.99734        48.61692         0.46024
C         39.98025        49.98108         0.74147
C         38.71632        50.70423         0.94358
C         40.02287        52.82775         1.50051
C         38.72485        52.07885         1.27355
C         40.00668        54.22904         0.94063
C         42.42280        48.58705         0.22655
C         41.20028        47.93128         0.21515
C         42.45119        49.99605         0.48217
C         41.23014        50.68985         0.78444
C         42.46430        52.80844         0.96340
C         41.25745        52.08969         1.03259
C         42.45638        54.26159         0.84422
C         41.15215        54.88807         0.67898
C         44.92748        45.74933         0.48439
C         43.76542        46.41841         0.43990
C         44.93646        48.58921         0.30987
C         43.69078        47.82227        -0.12860
C         44.94887        50.07389         0.01031
C         43.67628        50.73225         0.48352
C         44.96342        52.80111         0.99296
C         43.68704        52.09442         0.75858
C         44.93115        54.31957         1.02237
C         43.64377        54.97716         0.69274
C         44.83268        57.01475        -0.03233
C         43.68172        56.32072         0.16054
C         47.56274        44.27834         0.32540
C         47.50050        45.67334         0.26190
C         46.19494        46.37794        -0.05840
C         47.48524        48.59322         0.26592
C         46.21818        47.83984         0.37748
C         47.44491        49.99374         0.34975
C         46.23399        50.76076         0.44237
C         47.51303        52.88148         1.16681
C         46.24828        52.10076         0.77960
C         47.47130        54.30215         0.64223
C         46.22897        55.05858         0.84636
C         47.39812        57.13524        -0.17098
C         46.15175        56.50415         0.39087
C         47.46277        58.60430        -0.27369
C         50.00210        44.33082         0.46532
C         48.78412        43.61652         0.42827
C         49.95500        45.73774         0.40688
C         48.71208        46.41593         0.30304
C         49.94096        48.54762        -0.05285
C         48.70196        47.86510         0.21037
C         49.89327        50.02408        -0.23139
C         48.73341        50.70666         0.41471
C         50.01271        52.92610         0.34249
C         48.80353        52.15467         0.76040
C         50.00372        54.32423         0.34013
C         48.75777        55.09188         0.74976
C         49.96037        57.18644        -0.05993
C         48.70022        56.40615        -0.01690
C         49.92765        58.58268        -0.20449
C         48.64691        59.26069        -0.29587
C         52.53454        41.53211         0.45254
C         51.34262        42.22868         0.58645
C         52.51124        44.35841         0.34878
C         51.29361        43.63526         0.49257
C         52.49559        45.77387         0.20795
C         51.23073        46.53244         0.53261
C         52.37656        48.58503        -0.64861
C         51.14326        47.88100        -0.11825
C         52.44566        50.00163        -0.04190
C         51.16944        50.77709        -0.26723
C         52.41991        52.91081        -0.18706
C         51.20397        52.23111         0.01993
C         52.42086        54.33231        -0.14944
C         51.20002        55.03476         0.06002
C         52.41661        57.18812        -0.12608
C         51.19498        56.48192        -0.01056
C         52.40218        58.61853        -0.15892
C         51.16158        59.31731        -0.19019
C         52.36525        61.43983        -0.13881
C         51.18458        60.74391        -0.19695
C         54.97554        40.12515        -0.36592
C         54.96900        41.46767         0.03293
C         53.76398        42.19939         0.27679
C         54.98305        44.34974         0.22403
C         53.78044        43.64794         0.29537
C         55.01709        45.85620         0.24874
C         53.67873        46.49519        -0.02909
C         54.86957        48.56053        -0.68527
C         53.67962        47.86273        -0.38031
C         54.78040        50.00081        -1.00652
C         53.63765        50.77878        -0.53258
C         54.88385        52.89681        -0.66910
C         53.64578        52.16990        -0.50072
C         54.87563        54.33669        -0.50661
C         53.65592        55.05032        -0.31655
C         54.88997        57.18846        -0.28679
C         53.66189        56.47315        -0.23170
C         54.88140        58.63262        -0.19304
C         53.63912        59.34353        -0.15961
C         54.85837        61.49832        -0.08512
C         53.62379        60.76953        -0.11482
C         54.90254        62.93100         0.14707
C         57.42466        40.06263        -0.48017
C         56.17291        39.42953        -0.55912
C         57.49317        41.46139        -0.20763
C         56.26083        42.14185         0.22885
C         57.57833        44.43090         0.22165
C         56.26774        43.65986         0.37973
C         57.44512        45.70548        -0.59427
C         56.14135        46.43760        -0.59666
C         57.33245        48.59235        -1.09471
C         56.13151        47.90839        -0.80914
C         57.36934        50.01182        -1.15359
C         56.10590        50.76646        -1.20240
C         57.36141        52.84904        -0.85813
C         56.09747        52.19909        -0.89206
C         57.36031        54.28446        -0.49476
C         56.09700        55.05435        -0.50544
C         57.37771        57.19364        -0.43735
C         56.11385        56.46724        -0.40940
C         57.36784        58.65557        -0.28823
C         56.09407        59.36050        -0.18320
C         57.32670        61.54019        -0.30029
C         56.06696        60.78272        -0.16664
C         57.35546        63.03399        -0.06900
C         56.05540        63.64523         0.24305
C         59.89098        37.20162        -0.58794
C         58.68598        37.89789        -0.52532
C         59.89169        40.00043        -0.69029
C         58.66913        39.30357        -0.60277
C         59.86028        41.47041        -1.00935
C         58.67795        42.19502        -0.40838
C         59.90906        44.31388        -0.66235
C         58.73242        43.60481        -0.32401
C         59.90416        45.75506        -0.85075
C         58.69613        46.44392        -0.85523
C         59.87736        48.62255        -1.34946
C         58.59194        47.82280        -1.45928
C         59.84314        50.00522        -1.39375
C         58.59093        50.73262        -1.23923
C         59.80295        52.95083        -1.48369
C         58.56589        52.15934        -1.09998
C         59.88530        54.36772        -0.97769
C         58.64187        55.04843        -0.55680
C         59.89651        57.19202        -0.39121
C         58.56959        56.51545        -0.56500
C         59.81153        58.67405        -0.62694
C         58.55071        59.35557        -0.26972
C         59.85306        61.55976        -0.44554
C         58.59432        60.81975         0.08740
C         59.85288        62.98695         0.05559
C         58.67253        63.66816         0.27704
C         59.89362        65.58646         1.21844
C         58.72093        64.96143         0.92169
C         62.39983        35.70405        -0.45504
C         62.42793        37.15955        -0.82119
C         61.11093        37.88240        -0.64273
C         62.37303        40.02934        -0.55483
C         61.12013        39.30034        -0.65803
C         62.36190        41.46072        -0.58988
C         61.15774        42.17699        -0.74041
C         62.37251        44.30568        -0.88586
C         61.14987        43.59261        -0.77556
C         62.35082        45.71024        -1.14605
C         61.14958        46.44472        -1.16542
C         62.35240        48.58863        -1.45555
C         61.14015        47.88771        -1.37039
C         62.38620        50.03787        -1.47492
C         61.09866        50.77001        -1.77854
C         62.29573        52.92378        -1.34053
C         61.11871        52.22282        -1.35855
C         62.32931        54.37077        -1.19641
C         61.06672        55.05664        -1.05490
C         62.34600        57.25073        -0.93287
C         61.03021        56.55766        -1.21936
C         62.36869        58.63423        -0.70712
C         61.10358        59.41021        -0.67815
C         62.42019        61.53138        -0.28462
C         61.12763        60.79021        -0.05851
C         62.42569        62.93450         0.00179
C         61.14977        63.68002         0.07505
C         62.47695        65.61850         1.15159
C         61.17188        65.10626         0.68022
C         62.55452        66.83992         1.85674
C         64.64689        35.79641         0.48204
C         63.46417        35.08198         0.12268
C         64.69388        37.19641         0.31370
C         63.57726        37.91269        -0.19433
C         64.76815        40.07525         0.11432
C         63.57144        39.32928        -0.24033
C         64.78366        41.52221        -0.05882
C         63.58940        42.19485        -0.44251
C         64.85098        44.28761        -0.70700
C         63.61290        43.59595        -0.70648
C         64.96361        45.61548        -1.41295
C         63.62133        46.35079        -1.54953
C         64.92846        48.56200        -1.63315
C         63.61172        47.84622        -1.69020
C         64.87652        50.05072        -1.51507
C         63.56327        50.74364        -1.44402
C         64.81335        52.97842        -1.18501
C         63.59052        52.23925        -1.70311
C         64.80121        54.35015        -1.05099
C         63.53867        55.07649        -1.10966
C         64.79121        57.24113        -0.97662
C         63.55783        56.52133        -0.99048
C         64.78620        58.65937        -0.94212
C         63.58837        59.36200        -0.70649
C         64.86768        61.49764        -0.44799
C         63.59194        60.80663        -0.48850
C         64.88093        62.89456         0.00488
C         63.64221        63.60379         0.22179
C         64.92610        65.51286         1.17038
C         63.66951        64.92780         0.81832
C         64.98973        66.76051         1.86591
C         63.76982        67.40148         2.20319
C         67.04989        32.94848         1.13650
C         65.89111        33.62562         1.16148
C         67.10676        35.75555         0.71572
C         65.79597        35.13772         1.23068
C         67.08718        37.25628         0.87339
C         65.91051        37.94221         0.62975
C         67.11307        40.13729         0.92998
C         65.90361        39.38529         0.52993
C         67.14780        41.61756         0.69140
C         65.96045        42.27847         0.12672
C         67.23999        44.43249        -0.05928
C         66.01963        43.65908        -0.23386
C         67.29866        45.78443        -0.38379
C         66.12053        46.48032        -0.91456
C         67.43795        48.60421        -1.18067
C         66.13759        47.82634        -1.15600
C         67.31835        50.04544        -0.70319
C         66.04325        50.77954        -0.92920
C         67.21407        52.94031        -0.37790
C         66.14182        52.26076        -1.24650
C         67.28320        54.42097        -0.69703
C         66.05392        55.10810        -0.88232
C         67.28480        57.26148        -0.87158
C         66.04411        56.52029        -0.94178
C         67.28896        58.65592        -0.99718
C         66.02813        59.42309        -1.32245
C         67.28719        61.69417        -0.94511
C         66.03320        60.84581        -0.79415
C         67.37072        62.71690         0.18520
C         66.09287        63.52453         0.26572
C         67.38730        65.49035         1.01265
C         66.13746        64.84788         0.80770
C         67.45147        66.65621         1.83115
C         66.26978        67.29483         2.24852
C         67.55542        69.07145         3.39694
C         66.38282        68.47471         3.09792
C         69.50243        31.66057         2.24845
C         69.55863        32.96874         1.75760
C         68.41400        33.59312         0.96659
C         69.65178        35.77526         1.08098
C         68.33350        35.08683         1.35954
C         69.67054        37.19856         0.72734
C         68.37269        37.95264         0.69917
C         69.62082        40.11328         0.34581
C         68.45358        39.41424         1.09441
C         69.63733        41.61247         0.62123
C         68.45521        42.30817         0.61131
C         69.71496        44.46717         0.47399
C         68.38514        43.81023         0.72383
C         69.73108        45.86252         0.21934
C         68.52609        46.54089        -0.17908
C         69.79673        48.64303        -0.36049
C         68.60117        47.90838        -0.51396
C         69.87452        50.09483        -0.80573
C         68.57000        50.84237        -0.62315
C         69.77413        52.97244        -0.40486
C         68.54013        52.20766        -0.50092
C         69.75599        54.38972        -0.43735
C         68.51044        55.11977        -0.61768
C         69.77502        57.25085        -0.66685
C         68.52996        56.54109        -0.72171
C         69.81661        58.66794        -0.81473
C         68.56059        59.37872        -1.09705
C         69.84377        61.56104        -0.67254
C         68.58032        60.89586        -1.05413
C         69.83664        62.94272        -0.31923
C         68.59700        63.57722         0.02157
C         69.75887        65.70952         0.16873
C         68.56981        64.91808         0.36605
C         69.70078        67.12989         0.21087
C         68.73357        67.11077         2.48109
C         69.55986        69.60280         1.93576
C         68.90426        68.58512         2.90837
C         69.30782        70.96364         2.17640
C         71.75226        31.85026         3.11087
C         70.58987        31.10159         2.92591
C         71.82788        33.15318         2.61813
C         70.74494        33.73076         1.93143
C         72.05550        35.85411         1.39675
C         70.81584        35.12552         1.44387
C         72.09334        37.21219         1.15407
C         70.92347        37.97034         0.86308
C         72.09002        40.14473         0.80167
C         70.91912        39.38128         0.68984
C         72.08479        41.54609         0.76267
C         70.90705        42.29853         0.68501
C         72.14306        44.47310         0.64522
C         70.91728        43.75096         0.62985
C         72.16065        45.84246         0.51725
C         70.96653        46.56988         0.27433
C         72.16717        48.74834         0.28710
C         70.98288        47.99165         0.06131
C         72.17252        50.13212         0.19871
C         71.04118        50.84787        -0.21888
C         72.19876        53.02751        -0.01925
C         71.00807        52.27305        -0.22308
C         72.18705        54.39678        -0.08615
C         70.98156        55.11242        -0.32923
C         72.21618        57.26879        -0.47087
C         70.99786        56.53898        -0.47534
C         72.23508        58.63802        -0.60086
C         71.03234        59.37985        -0.75460
C         72.26627        61.56312        -0.52704
C         71.05371        60.84064        -0.70310
C         72.27207        62.92642        -0.30131
C         71.06367        63.65165        -0.16147
C         72.18631        65.87784         0.29281
C         71.03055        65.07727         0.09838
C         72.07205        67.22109         0.63726
C         70.81946        67.87146         0.60994
C         71.30943        70.29751         0.37114
C         70.57622        69.27773         0.99874
C         71.03860        71.64026         0.62953
C         70.01899        71.97120         1.52203
O         58.15254        54.50481         0.75627
O         56.53664        45.63593        -1.75944
O         55.25474        50.37907        -2.33003
O         68.96735        37.53773        -0.60598
O         44.90299        53.55404         2.25988
O         66.38601        50.30708         0.40292
O         69.51791        66.27989         2.92821
O         65.15118        49.42076        -2.81411
O         57.37619        62.44170        -1.43988
O         46.29383        56.20481         1.81094
O         61.15590        64.88395        -0.76194
O         68.65938        60.21711        -2.35786
O         49.13249        51.13689         1.78408
O         66.87712        41.05635         2.05514
O         50.39690        50.52155        -1.51574
O         60.33096        59.19612        -1.90723
O         63.50538        46.97079        -2.87894
O         45.45863        48.18378         1.59851
O         47.97750        56.37509        -1.29375
O         56.34621        42.78933         1.56475
O         57.98062        44.86352         1.54734
H         57.72285        44.14252         2.16620
O         65.55896        35.49881         2.61243
H         66.39484        35.32895         3.10950
O         62.68249        37.19638        -2.28248
H         63.53957        36.74429        -2.43693
O         59.61502        53.11831        -2.94133
H         59.93080        52.27909        -3.36831
O         60.24924        57.03598         1.02039
H         59.81725        56.22029         1.35661
O         69.40375        40.05313        -1.08189
H         69.42874        39.10044        -1.34734
O         59.85457        61.63656        -1.87747
H         59.02469        62.09917        -2.15043
O         68.05200        44.09967         2.13504
H         68.68189        43.59954         2.69608
O         67.14717        35.52069        -0.72301
H         67.82495        36.15107        -1.08157
O         43.72742        47.70756        -1.58538
H         43.93610        48.60791        -1.93633
O         68.16256        35.16079         2.80631
H         68.91248        34.68177         3.22222
O         67.49995        61.96227         1.42542
H         67.62797        62.60448         2.15515
O         60.75283        56.71451        -2.63114
H         60.71907        57.68473        -2.82208
O         68.56974        67.80746        -0.14947
H         67.90986        67.18514        -0.51726
O         68.78459        33.46195        -0.42272
H         68.11562        33.97536        -0.93951
O         47.54866        52.99123         2.62283
H         47.93704        52.14659         2.95274
O         44.92181        50.16180        -1.46215
H         44.86951        51.10922        -1.71055
O         40.16194        52.97551         2.95477
H         40.29570        52.08068         3.33209
O         51.37925        46.84817         1.97794
H         51.88764        47.68945         2.04379
O         65.38627        45.25253        -2.76460
H         64.92349        45.87921        -3.37417
O         52.26615        48.67663        -2.08353
H         51.50524        49.27374        -2.28979
O         58.44266        47.54424        -2.90063
H         57.67499        46.93072        -2.98940
O         63.67084        52.32399        -3.17708
H         64.55972        51.97822        -3.43086
O         59.65442        41.54928        -2.47189
H         60.39849        41.07307        -2.89861
O         48.93367        55.43589         2.15873
H         48.47028        54.74073         2.68757
O         61.12529        60.56215         1.39135
H         61.88457        59.97874         1.60578
O         66.56190        52.30806        -2.64007
H         66.68308        53.24990        -2.88779
O         61.06274        50.82987        -3.25666
H         61.92156        51.23141        -3.54045
O         46.12225        46.36733        -1.51133
H         45.23459        46.73357        -1.76731
O         70.13277        50.07102        -2.25435
H         69.35013        49.62720        -2.67296
O         69.79573        68.55029         4.04564
H         70.20059        67.64800         4.04520
O         58.55816        60.89971         1.54084
H         59.40740        60.53414         1.88824
O         68.78830        39.40663         2.49997
H         68.24309        40.11457         2.92202
O         66.75669        52.85522         0.99678
H         67.47293        53.18717         1.57615
O         55.36169        46.23272         1.62324
H         54.69355        45.83462         2.22076
O         67.15141        62.44751        -2.17357
H         67.29442        61.82302        -2.91782
O         66.00464        59.52598        -2.79578
H         66.92665        59.75718        -3.06851
O         67.78831        48.71594        -2.60381
H         67.65777        47.83805        -3.02124
O         52.56508        49.79626         1.39910
H         52.53257        50.67219         1.84001
H         37.42917        48.99081         0.53019
H         35.31900        50.20209         0.89843
H         37.51915        53.79610         1.82071
H         35.35056        52.61598         1.56540
H         39.06238        48.04366         0.41564
H         39.04317        54.74371         0.81484
H         41.15663        46.85687        -0.01069
H         41.10148        55.93305         0.34237
H         44.95585        44.73187         0.90316
H         42.84873        45.95055         0.82940
H         44.79312        57.98640        -0.54639
H         42.74057        56.77841        -0.17438
H         46.64053        43.68408         0.26296
H         46.52341        59.17675        -0.26656
H         48.77835        42.51917         0.45149
H         48.63018        60.35684        -0.36018
H         52.51367        40.43514         0.50355
H         50.42179        41.65191         0.73994
H         52.33130        62.53718        -0.13559
H         50.24471        61.30973        -0.22859
H         54.02719        39.59261        -0.51970
H         53.95711        63.45265         0.35131
H         56.11728        38.36661        -0.82895
H         56.01106        64.70269         0.54113
H         59.86443        36.10416        -0.57381
H         57.74935        37.33236        -0.43291
H         59.88014        66.47824         1.86093
H         57.78074        65.39777         1.28824
H         61.53727        35.10126        -0.77202
H         61.63186        67.37873         2.11156
H         63.41366        34.00052         0.31408
H         63.77596        68.36685         2.72548
H         67.00982        31.84739         1.11929
H         64.95410        33.05263         1.25112
H         67.55186        69.93353         4.08044
H         65.46070        68.89793         3.52095
H         68.59569        31.05710         2.10524
H         68.53892        71.25847         2.90305
H         72.60940        31.41702         3.64447
H         70.52674        30.07406         3.30954
H         72.74763        33.73151         2.78099
H         72.99869        35.32846         1.59725
H         73.06867        37.71731         1.18852
H         73.05764        39.64437         0.94805
H         73.05519        42.05453         0.83712
H         73.09519        43.94372         0.77827
H         73.12728        46.36072         0.55484
H         73.08138        48.24716         0.62914
H         73.08031        50.66397         0.51449
H         73.15562        52.51547         0.14283
H         73.13395        54.93523         0.04260
H         73.17428        56.74541        -0.36268
H         73.20381        59.15286        -0.58000
H         73.23070        61.04196        -0.58507
H         73.23525        63.44513        -0.20043
H         73.18395        65.42077         0.24862
H         72.97079        67.79651         0.90003
H         72.09463        70.02318        -0.34773
H         71.61595        72.42796         0.12609
H         69.78768        73.02479         1.73185
