         640
 CSIRO Nanostructure Databank - Neutral Graphene Oxide Data Set
C         23.00673        27.39565        -0.55871
C         23.04715        28.74199        -0.55420
C         23.01167        31.65924        -0.16827
C         22.96937        32.97782         0.12989
C         22.96078        36.00312         0.73613
C         23.02293        37.36836         0.74196
C         23.08287        40.31787         1.01875
C         23.10050        41.67743         1.22572
C         23.19087        44.54061         1.97565
C         23.21918        45.90851         2.07672
C         25.47388        24.61094        -0.81422
C         24.28232        25.24295        -0.73813
C         25.46552        27.33866        -0.07261
C         24.16133        26.58048        -0.05839
C         25.47105        28.75627        -0.01591
C         24.24499        29.48413        -0.18883
C         25.46543        31.59183         0.15851
C         24.23450        30.88528        -0.06132
C         25.47258        32.99498         0.38090
C         24.17156        33.67921         0.61854
C         25.47664        35.87797         0.96620
C         24.15201        35.16058         0.92828
C         25.51137        37.37162         1.00531
C         24.23676        38.11256         0.90236
C         25.54722        40.18463         1.13493
C         24.27874        39.52014         0.99655
C         25.54294        41.59914         1.50545
C         24.31124        42.38155         1.47528
C         25.59809        44.51120         1.42554
C         24.36770        43.79078         1.66027
C         25.56979        45.93527         1.39030
C         24.40778        46.63704         1.75626
C         25.61945        48.77085         1.64146
C         24.44537        48.06636         1.84883
C         27.98846        23.14020        -0.60942
C         27.94347        24.50706        -0.33788
C         26.70024        25.23621        -0.34788
C         27.90903        27.29967         0.47881
C         26.67093        26.60688        -0.02687
C         27.95749        28.77366         0.13815
C         26.71653        29.47023         0.06665
C         27.93947        31.61524         0.12133
C         26.70894        30.89449         0.10150
C         27.93181        33.03714         0.18345
C         26.68561        33.69941         0.36992
C         27.93402        35.94195         0.19030
C         26.65649        35.17758         0.36572
C         27.96644        37.39412         0.49002
C         26.78024        38.09317         0.73185
C         28.01989        40.22858         0.74594
C         26.77599        39.51089         0.91140
C         28.04853        41.64535         0.81444
C         26.89730        42.39364         1.32497
C         28.00810        44.54733         0.77502
C         26.80967        43.83231         1.12786
C         28.01575        45.96352         0.74045
C         26.70702        46.70027         0.76311
C         28.03392        48.83374         1.01479
C         26.80945        48.13545         1.21416
C         28.11165        50.24983         1.18144
C         30.42846        23.08551        -0.57704
C         29.21150        22.45314        -0.75552
C         30.45194        24.47341        -0.17745
C         29.19437        25.21179        -0.08382
C         30.42674        27.30749         0.48454
C         29.18825        26.56593         0.19144
C         30.45293        28.77089         0.19661
C         29.17215        29.46756         0.07345
C         30.39171        31.62414        -0.07563
C         29.17704        30.90596         0.01856
C         30.40634        33.03875        -0.02072
C         29.17442        33.76857         0.10983
C         30.42188        35.90583         0.09838
C         29.20139        35.18559         0.14552
C         30.42783        37.34851         0.15160
C         29.21176        38.07853         0.36371
C         30.43204        40.22349         0.20521
C         29.21720        39.50695         0.43538
C         30.39902        41.63551         0.20906
C         29.22366        42.36689         0.49374
C         30.38604        44.56424         0.23463
C         29.22016        43.82890         0.53630
C         30.41932        45.97977         0.25750
C         29.21438        46.68770         0.54697
C         30.45226        48.83911         0.46952
C         29.23117        48.13039         0.64898
C         30.48624        50.26447         0.61162
C         29.28145        50.93561         0.97272
C         32.86770        20.23582        -0.99586
C         31.71412        20.92811        -1.06780
C         32.89656        22.84851        -0.06412
C         31.73997        22.43793        -0.98321
C         32.92733        24.34898         0.16230
C         31.66008        25.10150         0.11328
C         32.97837        27.27174         0.20202
C         31.72621        26.53182         0.46209
C         32.95743        28.77195         0.43142
C         31.64050        29.43153         0.05458
C         32.91852        31.61988        -0.21883
C         31.63678        30.85804        -0.45302
C         32.89122        33.04391        -0.20031
C         31.65015        33.76332        -0.09738
C         32.88589        35.91390        -0.17001
C         31.65371        35.18505        -0.03976
C         32.88524        37.34027        -0.19171
C         31.65692        38.05785        -0.00414
C         32.87642        40.17607        -0.29792
C         31.66822        39.49036        -0.02347
C         32.80100        41.66371        -0.57533
C         31.69922        42.38040         0.21755
C         32.83894        44.58327        -0.50055
C         31.56980        43.82195        -0.23189
C         32.85693        46.03595        -0.28026
C         31.65229        46.71048         0.02480
C         32.89309        48.84688         0.00562
C         31.66641        48.13359         0.15906
C         32.91478        50.27659         0.12539
C         31.70855        50.98235         0.41514
C         32.93920        53.09634         0.34521
C         31.76583        52.40796         0.50974
C         35.46690        18.72585        -1.08053
C         35.37810        20.17701        -1.30386
C         34.15603        20.91713        -0.91208
C         35.45622        23.00231        -0.59564
C         34.20661        22.25280        -0.58531
C         35.45292        24.41485        -0.34648
C         34.21670        25.11804         0.05429
C         35.38705        27.31517        -0.26497
C         34.15071        26.59974        -0.04873
C         35.33440        28.76045        -0.35631
C         34.17209        29.46692        -0.14503
C         35.35875        31.64338        -0.45223
C         34.13741        30.91889        -0.28221
C         35.34529        33.06963        -0.44901
C         34.11912        33.77485        -0.28732
C         35.32723        35.92341        -0.56635
C         34.11226        35.20491        -0.31753
C         35.30242        37.33457        -0.68747
C         34.10508        38.04591        -0.45973
C         35.31210        40.20147        -0.81853
C         34.08912        39.49090        -0.55496
C         35.27432        41.68807        -1.07607
C         34.14944        42.35506        -0.30764
C         35.29828        44.54808        -0.66121
C         34.11472        43.85556        -0.53440
C         35.31827        46.00148        -0.61121
C         34.09687        46.71956        -0.38665
C         35.34254        48.85269        -0.36430
C         34.11193        48.14500        -0.24820
C         35.35626        50.27637        -0.26413
C         34.14209        50.98867        -0.03166
C         35.38886        53.12523        -0.09740
C         34.17176        52.41979         0.07874
C         35.49237        54.55351         0.13060
C         37.93599        18.78829        -1.13143
C         36.66015        18.09185        -1.04231
C         37.95613        20.17755        -1.19211
C         36.69738        20.94187        -1.31031
C         37.93053        23.05963        -0.76999
C         36.67411        22.35822        -0.89232
C         37.89294        24.49108        -0.55665
C         36.64266        25.16566        -0.42932
C         37.84634        27.35161        -0.37446
C         36.59796        26.61705        -0.36893
C         37.84618        28.75576        -0.44908
C         36.57290        29.45955        -0.84684
C         37.81531        31.61110        -0.60499
C         36.59773        30.93677        -0.56932
C         37.83521        33.06404        -0.99696
C         36.55627        33.80260        -0.66618
C         37.83162        35.88878        -1.12553
C         36.54725        35.18480        -0.73629
C         37.81718        37.36985        -0.86583
C         36.52594        38.05873        -1.21177
C         37.78763        40.23375        -0.94871
C         36.53867        39.53925        -0.93976
C         37.81673        41.68808        -0.86004
C         36.56262        42.42615        -0.80736
C         37.83038        44.53367        -1.02651
C         36.54356        43.79603        -0.76111
C         37.79854        46.00722        -0.72092
C         36.55431        46.70268        -0.65109
C         37.79648        48.83784        -0.65057
C         36.57000        48.13883        -0.55546
C         37.80661        50.27861        -0.61930
C         36.58515        50.98620        -0.41334
C         37.81379        53.11345        -0.62377
C         36.59688        52.41352        -0.39681
C         37.74918        54.59362        -0.91966
C         36.61606        55.24413        -0.16431
C         40.32243        15.96052        -0.34746
C         39.17965        16.63229        -0.77469
C         40.43332        18.74457        -0.80142
C         39.15588        18.02811        -0.94636
C         40.50904        20.23970        -0.99734
C         39.22556        20.97450        -1.42465
C         40.44992        23.15043        -0.96018
C         39.15202        22.39033        -0.90183
C         40.35667        24.55299        -0.42827
C         39.11134        25.22353        -0.42563
C         40.29777        27.36800        -0.14386
C         39.08009        26.64743        -0.27901
C         40.28662        28.79284        -0.13911
C         39.05505        29.48585        -0.33742
C         40.26842        31.64053        -0.24686
C         39.05345        30.91687        -0.43802
C         40.25696        33.07149        -0.22324
C         39.05869        33.80635        -0.51673
C         40.19333        35.96434        -0.21191
C         39.04641        35.19484        -0.56671
C         40.22552        37.36579        -0.34888
C         38.98904        38.06943        -0.66736
C         40.25515        40.20568        -0.73628
C         39.01535        39.52269        -0.78663
C         40.28834        41.67038        -1.09237
C         39.00804        42.36535        -0.74549
C         40.29518        44.55611        -0.61388
C         38.99884        43.82748        -0.36224
C         40.28185        45.95893        -0.64002
C         39.02006        46.68457        -0.65625
C         40.27021        48.80657        -0.74841
C         39.04214        48.12017        -0.68790
C         40.27111        50.25541        -1.14740
C         39.01672        50.99251        -0.75608
C         40.29968        53.12789        -0.83223
C         39.02681        52.40954        -0.74663
C         40.28451        54.58243        -0.77779
C         39.07792        55.30060        -0.77189
C         40.27954        57.41188        -0.56458
C         39.09788        56.71551        -0.71548
C         42.63604        15.99066         0.60314
C         41.46500        16.68441         0.10410
C         42.56184        18.86673         0.56263
C         41.49750        18.07216        -0.05155
C         42.75761        20.28647         0.19570
C         41.63590        20.99554        -0.39196
C         42.79687        23.11190         0.00063
C         41.62830        22.38993        -0.37981
C         42.78735        24.51559         0.03262
C         41.54766        25.23899        -0.13604
C         42.74681        27.37765         0.13283
C         41.53036        26.66249        -0.01598
C         42.73537        28.80340         0.13343
C         41.50886        29.51322        -0.00352
C         42.71217        31.66672         0.17326
C         41.49908        30.94628        -0.01217
C         42.68416        33.09536         0.24018
C         41.44611        33.77252         0.08845
C         42.70172        36.00663         0.28598
C         41.37149        35.22815         0.25611
C         42.68086        37.42968        -0.07017
C         41.46456        38.09947        -0.25639
C         42.71031        40.25497        -0.46872
C         41.47488        39.53297        -0.49896
C         42.73293        41.69682        -0.52110
C         41.52584        42.40944        -0.64592
C         42.75353        44.55201        -0.50730
C         41.51960        43.83193        -0.59414
C         42.74828        45.97788        -0.48682
C         41.51367        46.68439        -0.58291
C         42.72955        48.84269        -0.45300
C         41.50842        48.11425        -0.61691
C         42.68783        50.28143        -0.46685
C         41.52744        50.98914        -0.77180
C         42.81830        53.14809        -1.01299
C         41.50391        52.42503        -0.81027
C         42.77067        54.61126        -0.64465
C         41.52650        55.29709        -0.65263
C         42.74075        57.40665        -0.30401
C         41.51477        56.71554        -0.50029
C         43.74079        16.65518         1.02351
C         44.97578        18.88214         1.45073
C         43.73217        18.11935         1.18185
C         45.04724        20.28264         1.19331
C         43.93320        20.94248         0.53830
C         45.23995        23.12991         0.73642
C         44.11011        22.36566         0.08171
C         45.22324        24.54268         0.57081
C         44.00105        25.24247         0.27736
C         45.20600        27.38700         0.35340
C         43.98047        26.65835         0.26716
C         45.19893        28.81475         0.27362
C         43.96705        29.52594         0.20868
C         45.20185        31.64435         0.24894
C         43.96679        30.95119         0.23037
C         45.23048        33.12478         0.50097
C         43.92200        33.84240         0.24256
C         45.12107        35.93504        -0.35106
C         43.91990        35.21459         0.10758
C         45.12610        37.40046        -0.29556
C         43.94344        38.11140        -0.21658
C         45.16780        40.26366        -0.28411
C         43.95166        39.56776        -0.32646
C         45.21029        41.68906        -0.33262
C         43.97436        42.40859        -0.41852
C         45.21568        44.54940        -0.34009
C         43.98207        43.83269        -0.43521
C         45.21289        45.97911        -0.26857
C         43.97703        46.69916        -0.35043
C         45.20086        48.81280        -0.06445
C         43.96490        48.12728        -0.27062
C         45.21000        50.26206         0.17165
C         43.88340        51.04586        -0.04918
C         45.20447        53.13699        -0.21600
C         43.99346        52.45405        -0.37309
C         45.23549        54.57300        -0.36235
C         43.96970        55.30687        -0.43382
C         43.93130        56.71833        -0.24935
C         47.01994        18.96733         2.71514
C         46.00910        18.22013         2.13013
C         47.04554        20.35461         2.52236
C         46.18416        21.04116         1.64290
C         47.59998        23.21886         1.43047
C         46.35712        22.47907         1.30469
C         47.64737        24.58189         0.99758
C         46.43521        25.27337         0.70769
C         47.66056        27.40735         0.40197
C         46.43053        26.68993         0.49437
C         47.66211        28.81610         0.23095
C         46.42847        29.52681         0.23077
C         47.68732        31.65501         0.04597
C         46.42874        30.95240         0.18394
C         47.66458        33.09825        -0.10842
C         46.46266        33.77676        -0.06901
C         47.68472        35.94634        -0.47009
C         46.41804        35.19262        -0.45853
C         47.66681        37.33799        -0.52047
C         46.38355        38.12016        -0.71217
C         47.69759        40.22872        -0.37879
C         46.43654        39.48437        -0.02859
C         47.71578        41.67386        -0.35629
C         46.44766        42.39537        -0.30100
C         47.66426        44.54587        -0.12162
C         46.44452        43.82451        -0.28341
C         47.65326        45.93203         0.02841
C         46.44111        46.68091        -0.08744
C         47.65663        48.86289         0.14223
C         46.43431        48.11959         0.00002
C         47.69122        50.27137         0.07106
C         46.46208        51.00978         0.04805
C         47.69323        53.13843        -0.04619
C         46.44838        52.41606        -0.02050
C         47.66903        54.52285        -0.22193
C         46.46142        55.22763        -0.36089
C         50.28398        20.98931         3.08350
C         49.00338        21.57859         2.72876
C         50.19606        23.40632         1.75963
C         48.86872        22.64613         1.87395
C         50.14561        24.66983         0.94881
C         48.89669        25.30849         0.81093
C         50.10407        27.39104         0.17177
C         48.88898        26.69213         0.44992
C         50.08741        28.79213        -0.08467
C         48.89311        29.51664         0.02003
C         50.14273        31.66461        -0.32548
C         48.88804        30.95815        -0.09929
C         50.13847        33.09914        -0.42012
C         48.91193        33.80109        -0.35307
C         50.13918        35.92277        -0.66135
C         48.91099        35.21879        -0.46760
C         50.10474        37.34139        -0.77587
C         48.88762        38.05290        -0.62387
C         50.07875        40.20373        -0.91824
C         48.87040        39.50443        -0.57117
C         50.24651        41.63294        -0.41574
C         48.92097        42.36659        -0.38332
C         50.21562        44.53012        -0.06690
C         48.92710        43.77233         0.15743
C         50.19876        45.93111         0.26803
C         48.90191        46.61909         0.42929
C         50.18842        48.85332         0.29318
C         48.90962        48.14973         0.43628
C         50.19013        50.27668         0.18711
C         48.94528        50.98721         0.12078
C         50.18796        53.08148         0.09886
C         48.95008        52.40806         0.07068
C         51.41356        21.35183         2.44269
C         52.68099        23.20433         1.29539
C         51.35600        22.45573         1.40513
C         52.64387        24.64452         0.86293
C         51.34942        25.33618         0.62333
C         52.58032        27.42349        -0.01341
C         51.34689        26.68574         0.20212
C         52.59740        28.77757        -0.27568
C         51.31202        29.46657        -0.64708
C         52.57961        31.65450        -0.69453
C         51.34246        30.96398        -0.47822
C         52.57510        33.06978        -0.80151
C         51.37068        33.80093        -0.66945
C         52.60579        35.97988        -0.96825
C         51.37242        35.23423        -0.78929
C         52.57210        37.41676        -1.11982
C         51.30747        38.04058        -1.14278
C         52.98201        40.51453        -1.34819
C         51.09395        39.43263        -1.44519
C         52.78395        41.80596        -0.83247
C         51.42356        42.49916        -1.01080
C         52.64021        44.45513         0.16626
C         51.39898        43.85441        -0.31785
C         52.63084        45.94851         0.51149
C         51.37031        46.67449         0.37550
C         52.65001        48.78518         0.41417
C         51.40713        48.11828         0.36689
C         52.74430        50.26015         0.12331
C         51.42226        50.98994         0.19275
C         51.39548        52.38445         0.14423
C         55.10438        23.12342         0.75143
C         53.92810        22.46620         1.01672
C         55.17156        24.52670         0.49105
C         53.88025        25.21222         0.25376
C         55.12273        27.43823         0.12274
C         53.85135        26.66175        -0.09079
C         55.05142        28.80583        -0.50222
C         53.84407        29.50083        -0.51928
C         55.06682        31.64698        -0.85490
C         53.82075        30.92288        -0.76886
C         55.08525        33.06570        -0.93910
C         53.81132        33.78612        -1.29254
C         55.08422        35.96431        -0.93266
C         53.82849        35.27301        -1.02605
C         55.11196        37.37909        -0.88793
C         53.90888        38.15229        -1.40802
C         55.11975        40.21506        -0.36274
C         53.97910        39.62036        -0.96948
C         55.12138        41.61746        -0.09773
C         53.92831        42.38337        -0.24820
C         55.13597        44.45796         0.27358
C         53.95212        43.79342         0.02017
C         55.17392        45.96202         0.14387
C         53.89522        46.67129         0.46948
C         55.12340        48.76594         0.83441
C         53.89251        48.06874         0.53518
C         55.01108        50.16056         1.15388
C         53.86961        50.87305         0.91666
C         57.65320        24.56671         0.29737
C         56.38668        25.22876         0.22815
C         57.58128        27.29902        -0.34978
C         56.38104        26.62941        -0.10179
C         57.59877        28.71145        -0.80731
C         56.28961        29.48007        -0.90366
C         57.54726        31.62710        -0.84407
C         56.30979        30.94672        -0.85421
C         57.54493        33.05980        -0.78574
C         56.30262        33.77649        -0.84970
C         57.53164        35.90725        -0.56704
C         56.30687        35.21725        -0.79553
C         57.52541        37.32077        -0.35196
C         56.30673        38.05157        -0.50189
C         57.49786        40.11442         0.24106
C         56.31756        39.45609        -0.20247
C         57.47075        41.50699         0.57548
C         56.31653        42.26602         0.36333
C         57.54561        44.37526         0.81425
C         56.35164        43.71739         0.48401
C         57.66939        45.87768         0.63168
C         56.36670        46.62976         0.75200
C         57.56658        48.63126         1.47387
C         56.34105        47.99946         1.01022
C         58.83474        25.24590         0.11225
C         60.04156        27.38050        -0.28796
C         58.83420        26.63298        -0.20158
C         60.03950        28.75621        -0.45178
C         58.84457        29.48614        -0.67804
C         60.00813        31.66331        -0.78183
C         58.80124        30.90310        -0.79091
C         59.99728        33.03332        -0.72569
C         58.77495        33.76830        -0.68002
C         59.96730        35.90575        -0.23644
C         58.76742        35.18812        -0.50822
C         59.95702        37.25645         0.00249
C         58.74380        38.00968        -0.03725
C         59.95597        40.16184         0.44390
C         58.73689        39.40177         0.24810
C         59.94297        41.45503         0.84097
C         58.66204        42.12245         1.27300
C         59.82261        44.31080         1.68065
C         58.70678        43.63828         1.19963
C         59.83502        45.72246         1.85289
C         58.77350        46.50033         1.44364
C         58.70377        47.91045         1.70401
O         47.91249        21.02800         3.39076
O         33.70478        24.65815         1.37714
O         40.97350        19.36465        -2.09507
O         48.80396        47.34987         1.68479
O         24.01840        34.17064         2.01051
O         35.95837        20.65409        -2.55933
O         53.78739        25.66702        -1.15676
O         26.42261        41.92579         2.62220
O         52.54763        44.91948         1.56770
O         45.59596        35.43810        -1.69399
O         41.95504        35.70447         1.50982
O         44.36039        50.68957         1.28756
O         52.87052        24.28586         2.26701
O         52.03302        40.05451        -2.27564
O         56.92864        28.89560        -2.11046
O         31.91787        44.15459        -1.59814
O         25.68857        36.53641         2.24758
O         27.02436        35.68579        -0.96982
O         31.07662        26.91378         1.75834
O         42.63038        18.61998         2.02198
O         31.56102        30.71812        -1.92649
H         31.55772        31.62243        -2.30716
O         55.32178        46.15978        -1.34735
H         55.36082        47.13006        -1.49867
O         51.17680        42.71358        -2.41214
H         51.32933        41.85539        -2.86977
O         43.06194        53.09983        -2.46827
H         42.25164        53.42928        -2.91247
O         36.52168        29.36890        -2.32219
H         37.20434        29.97863        -2.67792
O         53.73880        33.68290        -2.77464
H         52.92047        34.14433        -3.05824
O         36.40462        37.96992        -2.70553
H         37.10511        38.55020        -3.07681
O         51.20748        29.27586        -2.11340
H         51.28453        28.31369        -2.29108
O         40.25933        50.24423        -2.63499
H         39.45097        49.76190        -2.91217
O         39.30247        21.10915        -2.88953
H         39.77304        20.29668        -3.20337
O         37.93265        35.75189        -2.59785
H         37.23301        36.35201        -2.96844
O         53.14646        50.34771        -1.30505
H         54.07021        50.02150        -1.35937
O         58.07217        46.04246        -0.78634
H         57.26869        45.83701        -1.32434
O         23.87323        26.29265         1.36168
H         24.70164        25.94742         1.75909
O         26.31522        46.80164        -0.67630
H         25.46438        47.29075        -0.70241
O         32.05543        22.97124        -2.30137
H         31.40609        22.61322        -2.94165
O         32.42142        41.74609        -1.96287
H         33.24062        41.70535        -2.51224
O         45.39944        33.25349         1.97232
H         44.59507        32.87971         2.39241
O         38.77029        43.89000         1.07587
H         39.51220        43.43285         1.52373
O         58.50369        41.80989         2.70558
H         58.44044        40.83425         2.78424
O         48.93330        43.58650         1.62506
H         49.77475        43.11974         1.84237
O         50.64954        41.44636         0.98971
H         49.98872        40.85476         1.41063
O         46.49146        39.21659         1.40856
H         46.42824        40.07538         1.87719
O         33.05212        28.93937         1.89024
H         32.40145        28.30563         2.28071
O         40.76584        23.32689        -2.39361
H         40.29669        22.60132        -2.88427
O         51.07195        21.87066         0.11314
H         51.79739        21.25461        -0.11869
O         35.03909        41.84285        -2.51568
H         35.74077        41.34741        -2.98863
O         32.63739        22.24667         1.22471
H         33.13641        22.77472         1.88842
O         27.78745        27.25139         1.95245
H         28.67845        27.42214         2.32917
O         37.91918        33.02042        -2.46415
H         37.95188        33.96539        -2.77296
O         55.11334        27.69358         1.58208
H         55.94781        28.15192         1.81683
O         54.04557        38.14576        -2.86437
H         53.32433        38.71517        -3.21632
O         32.03960        42.47067         1.64272
H         31.82534        41.61037         2.06308
O         38.06264        44.42846        -2.47070
H         37.29051        44.82579        -2.92630
O         50.46425        23.86673         3.11947
H         49.82912        24.58224         3.32956
O         44.55640        22.27063        -1.33317
H         43.77950        21.99217        -1.86540
O         46.26540        38.33446        -2.14637
H         46.09594        37.45202        -2.54882
O         40.34399        41.71494        -2.57787
H         40.14662        42.63985        -2.84403
O         34.53559        42.15344         1.07418
H         33.81352        42.51310         1.64604
O         37.40233        54.70385        -2.34875
H         36.54050        54.25189        -2.47203
H         22.08979        26.86712        -0.85972
H         22.15884        29.30099        -0.87987
H         22.08362        31.15675        -0.47202
H         22.01438        33.52028         0.09379
H         21.97943        35.51205         0.67689
H         22.07945        37.92193         0.63572
H         22.11267        39.82846         0.86275
H         22.15067        42.22965         1.20115
H         22.25776        44.00443         2.19669
H         22.31747        46.46343         2.37300
H         25.52120        23.60837        -1.26191
H         23.36430        24.74393        -1.08291
H         25.61630        49.85112         1.84283
H         23.53895        48.59909         2.16992
H         27.06153        22.57255        -0.76172
H         27.21473        50.81668         1.46336
H         29.16758        21.39444        -1.04434
H         29.27685        52.02561         1.10153
H         32.85163        19.14285        -1.11279
H         30.77222        20.39096        -1.24739
H         32.92306        54.19220         0.41330
H         30.85047        52.98014         0.70926
H         34.54818        18.15212        -0.89360
H         34.65189        55.07897         0.60600
H         36.66631        17.00768        -0.87048
H         36.65484        56.32069         0.05346
H         40.31394        14.86499        -0.26422
H         38.27940        16.03774        -0.98025
H         40.27496        58.50922        -0.49800
H         38.15609        57.27575        -0.78870
H         42.64607        14.89244         0.53986
H         42.72469        58.49894        -0.17915
H         44.65652        16.09232         1.25322
H         44.86116        57.27307        -0.06563
H         47.75527        18.50237         3.38366
H         45.95620        17.13945         2.31378
H         48.60377        55.09721        -0.25779
H         46.51100        56.31757        -0.48606
H         50.28719        20.18680         3.83488
H         50.22355        54.17811         0.06741
H         52.36910        20.84684         2.64903
H         52.33690        52.95074         0.12842
H         56.02382        22.52383         0.68442
H         53.92712        21.36900         1.10364
H         55.85601        50.66724         1.64229
H         53.81589        51.92987         1.21400
H         57.69161        23.49525         0.53536
H         57.56462        49.70805         1.69072
H         59.79564        24.72143         0.21495
H         60.99664        26.85470        -0.14588
H         61.00243        29.28318        -0.41372
H         60.97650        31.14742        -0.81528
H         60.95773        33.56431        -0.72020
H         60.92509        35.37260        -0.18136
H         60.90399        37.75793         0.24087
H         60.92059        39.68771         0.21332
H         60.89359        41.99704         0.95096
H         60.69305        43.73984         2.03326
H         60.68641        46.18720         2.37234
H         59.58671        48.40564         2.13639
