         620
 CSIRO Nanostructure Databank - Neutral Graphene Oxide Data Set
C         23.12718        27.67454        -1.71062
C         23.08182        29.00774        -1.33065
C         22.99086        31.83703        -0.53230
C         22.94214        33.15200        -0.09911
C         22.89257        36.02359         0.40890
C         22.89395        37.39749         0.52684
C         22.88480        40.29426         0.70627
C         22.88904        41.67570         0.75125
C         23.06128        44.55539         1.83562
C         23.14161        45.88613         2.04784
C         25.60758        25.06854        -2.68171
C         24.42346        25.65026        -2.35686
C         25.56368        27.72415        -1.61889
C         24.35973        27.01122        -1.87931
C         25.50546        29.09446        -1.25000
C         24.26668        29.75443        -1.10835
C         25.40054        31.84515        -0.30520
C         24.21947        31.15595        -0.67569
C         25.34119        33.14563         0.23260
C         24.11061        33.84355         0.29043
C         25.26397        35.97626         0.91680
C         24.08240        35.27802         0.58596
C         25.29610        37.39736         0.97577
C         24.08725        38.11523         0.78051
C         25.30594        40.26117         1.05715
C         24.08498        39.56178         0.84778
C         25.29060        41.67928         1.12077
C         24.08802        42.37884         0.97235
C         25.38129        44.54701         0.93437
C         24.03105        43.88235         0.88455
C         25.36112        45.97015         0.97206
C         24.26024        46.66552         1.52626
C         25.47868        48.78701         1.28980
C         24.33281        48.06520         1.66386
C         28.27923        23.50319        -2.64650
C         28.22297        24.95245        -2.35674
C         26.87292        25.77290        -2.45714
C         28.02768        27.69252        -1.34951
C         26.83385        27.07669        -1.79092
C         28.01613        29.05629        -0.90911
C         26.77504        29.82706        -1.09027
C         27.93692        31.80092         0.08170
C         26.72936        31.24856        -0.56088
C         27.87864        33.10755         0.67449
C         26.54666        33.74587         0.85039
C         27.73631        35.95216         1.55346
C         26.46962        35.20382         1.26885
C         27.77364        37.41657         1.35804
C         26.54259        38.12192         1.17892
C         27.80155        40.24960         1.29762
C         26.55136        39.53483         1.18478
C         27.82713        41.66646         1.30966
C         26.54110        42.42392         1.51280
C         27.84601        44.49509         0.94383
C         26.57833        43.83488         0.98116
C         27.87842        45.91237         0.54880
C         26.55115        46.70547         0.57097
C         27.85041        48.82692         0.45774
C         26.60825        48.15319         0.76227
C         27.88166        50.22443         0.26549
C         30.27148        23.21116        -1.17564
C         29.26882        22.71700        -2.19334
C         30.41979        24.72537        -1.21501
C         29.27879        25.53990        -1.53788
C         30.36105        27.54923        -0.59919
C         29.24066        26.92362        -1.21993
C         30.36933        28.91582        -0.26136
C         29.16390        29.68917        -0.40148
C         30.35064        31.68638         0.52908
C         29.13663        31.07083         0.05039
C         30.32703        33.09044         0.92908
C         29.04931        33.76491         1.04627
C         30.27690        35.97578         1.43327
C         29.03617        35.18220         1.50658
C         30.25761        37.35846         1.49242
C         29.00607        38.09957         1.40987
C         30.27714        40.24648         1.48089
C         29.03573        39.53111         1.37239
C         30.29217        41.66666         1.44215
C         29.05250        42.37967         1.34794
C         30.29451        44.61490         1.48870
C         29.03695        43.81985         1.22531
C         30.31642        46.01148         0.89295
C         29.12166        46.68547         0.65992
C         30.31759        48.80366         0.29013
C         29.08476        48.10002         0.42681
C         30.31063        50.20878         0.05094
C         29.07413        50.89050         0.03440
C         32.82491        20.32658        -1.29912
C         31.63404        21.04964        -1.32062
C         32.85625        23.14607        -0.97425
C         31.57515        22.43646        -1.13811
C         32.87628        24.64457        -0.82706
C         31.58214        25.34206        -0.79911
C         32.84887        27.43379         0.01624
C         31.53508        26.72552        -0.31360
C         32.83122        28.89539         0.09877
C         31.59410        29.57143         0.13515
C         32.80376        31.56891         0.96530
C         31.54697        30.95211         0.52359
C         32.77816        33.05323         1.26168
C         31.51141        33.78583         1.16596
C         32.78142        35.99105         1.56016
C         31.51796        35.19083         1.74084
C         32.75294        37.35322         1.69428
C         31.50244        38.10606         1.63352
C         32.76109        40.26047         1.98257
C         31.50386        39.49383         1.63275
C         32.75424        41.70063         1.54308
C         31.56377        42.40353         1.44805
C         32.75842        44.56595         1.13360
C         31.57584        43.84841         1.27766
C         32.78441        45.98638         0.83985
C         31.55447        46.70499         0.72799
C         32.79764        48.77973         0.20361
C         31.55753        48.09172         0.39195
C         32.79936        50.19755        -0.06922
C         31.56515        50.90669        -0.15199
C         32.78198        52.96645        -0.61439
C         31.58531        52.28643        -0.44109
C         35.45642        18.97554        -1.43668
C         35.37458        20.23055        -0.89085
C         34.05876        20.89715        -0.74361
C         35.33683        23.14876        -0.26154
C         34.04395        22.39131        -0.46948
C         35.38112        24.62111        -0.47911
C         34.13122        25.35346        -0.47166
C         35.31968        27.51621        -0.42694
C         34.10125        26.72229        -0.28739
C         35.32877        28.91634         0.01371
C         34.08662        29.59107         0.22907
C         35.31784        31.65940         0.73298
C         34.09101        30.94649         0.60569
C         35.32720        33.06782         0.98333
C         34.04286        33.79559         1.00427
C         35.34264        35.90887         1.47980
C         34.04482        35.28215         1.24430
C         35.33887        37.32329         1.87718
C         34.02692        38.09065         1.90814
C         35.26900        40.19970         1.48129
C         34.05854        39.53940         1.68059
C         35.30821        41.65053         1.34334
C         34.05105        42.39838         1.59217
C         35.29183        44.54725         0.88614
C         34.05395        43.89411         1.35075
C         35.24542        45.90013         0.56485
C         34.01204        46.65548         0.59142
C         35.25891        48.75556         0.02367
C         34.01704        48.05577         0.27400
C         35.27362        50.16217        -0.20891
C         34.02891        50.90408        -0.24090
C         35.27957        53.07117        -0.59904
C         34.01226        52.30199        -0.49867
C         35.34739        54.42353        -1.17017
C         37.90084        18.89131        -1.24510
C         36.68757        18.27210        -1.53158
C         37.91192        20.27366        -0.84811
C         36.63073        20.83603        -0.25823
C         37.89276        23.12438        -0.41729
C         36.63239        22.37499        -0.19086
C         37.86948        24.55016        -0.29918
C         36.60349        25.26926        -0.35495
C         37.84151        27.47179        -0.04070
C         36.65412        26.73900        -0.46409
C         37.81065        28.85441         0.14017
C         36.55312        29.58464         0.18417
C         37.78591        31.68905         0.63155
C         36.55551        30.97531         0.52358
C         37.77536        33.08817         0.87134
C         36.53273        33.78889         1.02061
C         37.80251        35.91822         1.40884
C         36.53461        35.22196         1.27238
C         37.81228        37.34639         1.55263
C         36.56963        38.07868         1.61297
C         37.76177        40.12711         1.04421
C         36.51123        39.44844         1.42544
C         37.74189        41.61755         0.83625
C         36.47636        42.35081         1.06805
C         37.75405        44.41712         0.60240
C         36.51794        43.78568         0.86635
C         37.78189        45.81740         0.15224
C         36.47035        46.57418         0.11112
C         37.70898        48.70218        -0.15719
C         36.48539        48.04925         0.05009
C         37.70327        50.05672        -0.53061
C         36.50367        50.79162        -0.52815
C         37.74844        52.90346        -1.27331
C         36.57562        52.26437        -0.66644
C         37.78622        54.27060        -1.49877
C         36.54049        55.00986        -1.46189
C         40.43829        16.13822        -1.68978
C         39.21822        16.79651        -1.55178
C         40.37466        18.94867        -1.42864
C         39.16376        18.19460        -1.42113
C         40.35260        20.35771        -1.19326
C         39.10117        21.00378        -0.85724
C         40.33726        23.16425        -0.63989
C         39.10231        22.43946        -0.61935
C         40.32522        24.58355        -0.39583
C         39.08172        25.26170        -0.22343
C         40.30826        27.47231         0.03133
C         39.07182        26.67563         0.31586
C         40.29385        28.85786         0.22838
C         39.04282        29.58089         0.34778
C         40.26693        31.73049         0.51438
C         39.03593        30.98288         0.50162
C         40.24650        33.12095         0.72596
C         39.01188        33.80797         0.95547
C         40.29098        35.86067         1.56729
C         39.00834        35.19624         1.24860
C         40.27563        37.33726         1.85787
C         39.02614        38.07732         1.62899
C         40.22981        40.23628         1.38899
C         39.04074        39.47483         1.39364
C         40.24050        41.61788         1.04195
C         39.02545        42.33701         0.89262
C         40.25180        44.43320         0.48220
C         39.00703        43.73434         0.70577
C         40.25746        45.87678         0.25634
C         39.06309        46.56181         0.16976
C         40.27570        48.79989        -0.07391
C         38.99129        48.06665         0.34087
C         40.23322        50.00797        -0.90051
C         38.92504        50.62407        -1.14781
C         40.17726        52.70672        -1.94617
C         38.90242        52.06105        -1.61382
C         40.18266        54.07125        -2.22063
C         39.03390        54.89932        -1.94608
C         40.40934        56.88797        -2.39065
C         39.17339        56.28332        -2.04503
C         42.89772        16.17233        -1.91626
C         41.63586        16.86188        -1.76545
C         42.81460        19.05161        -1.82163
C         41.61409        18.28634        -1.67037
C         42.79089        20.43392        -1.58234
C         41.56779        21.08570        -1.21434
C         42.79776        23.20549        -0.74924
C         41.56726        22.49408        -0.88419
C         42.78320        24.60133        -0.42573
C         41.55264        25.29498        -0.35000
C         42.76994        27.45379         0.07951
C         41.54633        26.79752        -0.48302
C         42.76693        28.84515         0.33370
C         41.52271        29.58903         0.31467
C         42.74215        31.70018         0.57589
C         41.52531        31.00949         0.42811
C         42.80608        33.14543         0.45137
C         41.48857        33.90841         0.57454
C         42.76085        35.99830         1.11862
C         41.57280        35.28980         1.09651
C         42.83161        37.39488         1.52772
C         41.57129        38.08504         1.89795
C         42.77352        40.35303         1.65097
C         41.49777        39.59158         1.80369
C         42.72211        41.71103         1.11533
C         41.49733        42.33549         0.88853
C         42.69639        44.38864         0.07832
C         41.44895        43.73096         0.51851
C         42.71734        45.84836        -0.09586
C         41.53710        46.55526         0.08223
C         42.74133        48.58444        -0.79514
C         41.58067        48.01416        -0.09437
C         42.66707        49.87015        -1.35170
C         41.39799        50.57636        -1.43902
C         42.50759        52.39971        -2.69124
C         41.35602        51.89558        -2.04692
C         42.56280        53.79998        -3.21163
C         41.36378        54.67474        -2.87086
C         42.76844        56.73675        -3.13239
C         41.50044        56.13923        -2.78900
C         44.04747        16.85649        -2.10324
C         45.38297        19.08425        -2.18502
C         44.05274        18.32868        -2.20759
C         45.36737        20.55090        -1.86312
C         44.03239        21.24320        -1.63611
C         45.27394        23.24436        -0.78512
C         44.05013        22.57213        -0.98932
C         45.26548        24.61567        -0.34229
C         44.03015        25.26842        -0.19191
C         45.30180        27.39281         0.43352
C         43.97590        26.65712         0.28684
C         45.25115        28.86649         0.29638
C         43.97684        29.53250         0.56421
C         45.29293        31.73195         0.91204
C         43.98066        30.96513         0.83820
C         45.26361        33.20666         0.77983
C         44.07153        33.87590         0.67201
C         45.29506        36.05089         0.92535
C         44.01480        35.37798         0.50319
C         45.28165        37.43164         1.12850
C         44.02548        38.11116         1.41299
C         45.29961        40.30872         1.15737
C         44.08330        39.57778         1.58740
C         45.27581        41.67988         0.97606
C         44.01174        42.48557         1.18873
C         45.25805        44.48319         0.23705
C         44.00733        43.70176         0.29954
C         45.22329        45.82303        -0.18179
C         43.97544        46.50731        -0.36355
C         45.19024        48.52403        -1.17819
C         43.96675        47.85676        -0.80777
C         45.14879        49.81767        -1.76767
C         43.84014        50.40613        -1.98876
C         45.42529        52.59595        -3.01432
C         43.61448        51.52830        -2.81305
C         45.12915        53.93947        -2.83159
C         43.91884        54.49757        -3.56565
C         43.86363        56.00490        -3.43560
C         47.73642        18.99710        -1.45700
C         46.64307        18.36537        -1.93912
C         47.75512        20.41486        -1.14126
C         46.57535        21.17270        -1.27760
C         47.75945        23.20651        -0.58067
C         46.54065        22.54643        -0.90362
C         47.77394        24.62224        -0.30974
C         46.52821        25.32396        -0.16848
C         47.77951        27.44371         0.16697
C         46.55482        26.70348         0.10318
C         47.80956        28.85531         0.36826
C         46.55598        29.62416         0.29846
C         47.77220        31.73421         0.74163
C         46.57376        31.04945         0.64766
C         47.75994        33.18343         0.89569
C         46.53980        33.89980         0.85310
C         47.75356        36.01145         1.14875
C         46.52663        35.32432         0.93956
C         47.76075        37.45424         1.18879
C         46.52609        38.15590         1.14399
C         47.76259        40.27724         1.01679
C         46.54606        39.58106         1.10712
C         47.79330        41.77485         1.15935
C         46.48845        42.42875         0.77924
C         47.75815        44.57948         0.59899
C         46.47528        43.79338         0.49844
C         47.70227        45.90633        -0.11802
C         46.46890        46.53792        -0.38969
C         47.66289        48.59568        -1.03351
C         46.43743        47.87117        -0.89852
C         47.62354        49.96427        -1.43481
C         46.40069        50.56143        -1.90599
C         47.64915        52.82344        -2.14734
C         46.46756        51.91182        -2.33183
C         47.17993        54.13673        -1.53421
C         45.99646        54.67742        -1.93974
C         50.19989        20.34407        -0.64425
C         48.97179        21.06122        -0.75909
C         50.22712        23.14625        -0.31469
C         48.98441        22.47299        -0.55165
C         50.25229        24.57610        -0.17382
C         49.00136        25.30938        -0.15987
C         50.22771        27.45058         0.16729
C         49.01420        26.73295         0.05355
C         50.25161        28.84000         0.42606
C         49.01966        29.56445         0.51565
C         50.24041        31.69041         0.88182
C         49.03177        31.00674         0.69475
C         50.25154        33.13699         1.08954
C         48.99321        33.88143         1.06582
C         50.18865        36.00283         1.65789
C         48.96441        35.28331         1.24386
C         50.25821        37.53441         1.66912
C         48.97831        38.17498         1.19924
C         50.24002        40.26810         0.75923
C         48.98824        39.57270         1.02048
C         50.23582        41.64872         0.45728
C         49.01799        42.41312         0.54599
C         50.20783        44.47864        -0.04248
C         48.99433        43.76637         0.26805
C         50.18029        45.86378        -0.24326
C         48.92779        46.57480        -0.36033
C         50.14327        48.67101        -0.88042
C         48.90337        47.94627        -0.74847
C         50.08767        50.08342        -1.12628
C         48.84140        50.73997        -1.36396
C         50.01999        52.88145        -1.38232
C         48.83674        52.14372        -1.53673
C         51.38689        20.99406        -0.42474
C         52.69859        23.10024        -0.15005
C         51.44343        22.41342        -0.29233
C         52.71401        24.52074        -0.00350
C         51.47848        25.24371        -0.03208
C         52.68192        27.37656         0.56582
C         51.51812        26.74675        -0.15672
C         52.72646        28.84979         0.61621
C         51.49922        29.55751         0.59201
C         52.72207        31.61180         1.11955
C         51.49458        30.96098         0.86023
C         52.70426        33.02286         1.64362
C         51.45403        33.79495         1.28458
C         52.74602        36.02142         1.58232
C         51.46744        35.23234         1.64243
C         52.73050        37.41014         1.03920
C         51.48559        38.12681         0.98170
C         52.62966        40.14284         0.06721
C         51.43775        39.48111         0.62559
C         52.67841        41.61565         0.00074
C         51.46106        42.34669         0.11800
C         52.68506        44.43568        -0.37748
C         51.45692        43.75011        -0.08807
C         52.70644        45.84568        -0.61038
C         51.47616        46.62880        -0.19160
C         52.58821        48.69908        -1.09070
C         51.38126        48.01969        -0.75097
C         52.54396        50.10927        -1.31356
C         51.29689        50.82669        -1.17236
C         51.23777        52.23790        -1.21441
C         55.14031        23.07667        -0.11001
C         53.94014        22.40836        -0.19277
C         55.18561        24.48773         0.07742
C         53.96997        25.19169         0.15175
C         55.21086        27.39521         0.50634
C         53.97564        26.61246         0.57088
C         55.21378        28.77900         0.71182
C         53.95858        29.50361         0.81195
C         55.20413        31.61198         1.18587
C         53.95656        30.91528         1.04007
C         55.16960        33.04549         1.29440
C         53.99506        33.75913         1.38603
C         55.22109        35.95463         1.02991
C         54.03217        35.23823         1.50853
C         55.20504        37.31920         0.76856
C         53.94275        38.02029         0.68877
C         55.21371        40.14056         0.07445
C         53.95175        39.37101         0.09976
C         55.16961        41.55720        -0.12985
C         53.90945        42.27896        -0.19381
C         55.13325        44.43021        -0.50266
C         53.90916        43.70345        -0.38474
C         55.14385        45.79848        -0.90097
C         53.88735        46.51182        -1.00338
C         54.76420        48.64630        -2.07938
C         53.78879        47.94811        -1.35212
C         54.75124        50.04109        -2.27364
C         53.67460        50.78162        -1.83052
C         57.68838        24.55998         0.18468
C         56.45582        25.19951         0.15519
C         57.75779        27.43134         0.32527
C         56.42764        26.67319         0.13136
C         57.70328        28.82230         0.79567
C         56.46335        29.50394         0.84944
C         57.70492        31.58485         1.29002
C         56.45168        30.91194         1.12738
C         57.74327        33.05379         1.44336
C         56.44878        33.78618         1.39417
C         57.76518        35.90574         0.73946
C         56.44620        35.17907         0.86571
C         57.70727        37.37760         0.71602
C         56.45434        38.03687         0.55696
C         57.70994        40.12932         0.13662
C         56.42015        39.43678         0.28301
C         57.67690        41.65448        -0.01367
C         56.36568        42.32301        -0.08907
C         57.57513        44.46372        -0.01545
C         56.35952        43.72900        -0.20978
C         57.59891        45.84187        -0.36759
C         56.45810        46.42977        -1.00248
C         57.93642        48.30127        -1.68436
C         56.73610        47.57845        -1.76550
C         58.90842        25.24890         0.38938
C         60.13837        27.32131         0.98408
C         58.96192        26.62886         0.56449
C         60.13010        28.68127         1.18817
C         58.93038        29.46522         1.10691
C         60.16109        31.63770         1.39175
C         58.92937        30.89030         1.29045
C         60.20655        33.00727         1.33439
C         59.01602        33.79364         1.23623
C         60.18172        35.99711         1.25372
C         59.01301        35.18930         1.10410
C         60.13594        37.36451         1.13986
C         58.92789        38.09099         0.85599
C         60.06902        40.31067         0.85605
C         58.93717        39.50609         0.66261
C         60.02383        41.70543         0.76541
C         58.85300        42.40837         0.44437
C         59.90193        44.65006         0.76586
C         58.77188        43.83426         0.44145
C         59.92403        45.97984         0.43755
C         58.81728        46.57956        -0.24085
C         58.94816        47.84609        -0.85004
O         33.77974        21.48075         0.61562
O         32.03627        26.81260         1.07313
O         37.03898        45.99425        -1.12607
O         44.55820        51.82021        -3.80179
O         45.82698        29.35482        -0.98104
O         50.73535        35.45447         2.91400
O         53.16049        39.48208        -1.13292
O         34.16638        43.34620         2.72403
O         44.63827        31.27647         2.15751
O         57.15516        27.25500        -0.99824
O         53.53463        35.79825         2.80013
O         26.92652        30.97821        -2.00062
O         36.13867        52.92260         0.57939
O         37.69932        40.68933        -0.31998
O         28.35535        35.47009         2.79286
O         57.08496        33.58036         2.69565
O         38.62461        50.95308        -2.55819
O         34.69540        37.64490         3.15477
O         26.24068        34.13880         2.23828
O         44.72097        18.77892        -3.44346
O         41.51096        38.92025         3.10353
O         43.35145        43.58485        -0.99433
O         27.85384        25.71914        -3.53930
O         41.58113        54.11068        -4.24252
O         27.14992        46.21325        -0.67751
O         43.61268        40.18473         2.85353
O         33.13446        23.98658        -2.15526
O         57.09371        35.30018        -0.44093
O         44.62249        26.87887         1.61000
O         32.82107        32.08734         2.35367
O         33.92144        34.70625        -0.14049
O         57.91839        40.77439        -1.16341
O         41.20395        48.85985         1.06810
O         55.80798        47.97872        -2.73032
O         35.95209        22.82668         1.03275
O         42.09388        33.68675        -0.75247
O         36.03446        27.27246        -1.68125
O         40.26011        36.35722         2.95283
O         53.14035        26.77286         1.80190
O         44.73571        21.31874        -2.92993
O         39.01470        26.48950         1.78803
H         39.14055        27.37095         2.20082
O         26.44179        42.60616         2.97938
H         26.59038        41.73043         3.39615
O         30.25088        44.85708         2.95178
H         31.15667        45.10139         3.24022
O         52.62609        32.91466         3.11271
H         52.69941        33.83002         3.47080
O         50.37241        37.95708         3.06009
H         50.74113        37.18717         3.55843
O         44.09084        42.98401         2.56359
H         43.99822        42.19298         3.14675
O         36.62428        20.36233         1.11930
H         35.99665        20.94934         1.60502
O         43.92402        35.64246        -0.93847
H         43.20888        35.05030        -1.28449
O         47.90223        44.90348         2.02792
H         47.94802        44.03676         2.50483
O         23.49688        44.15149        -0.45766
H         23.54493        45.12021        -0.60526
O         47.94035        42.04960         2.61123
H         47.21260        41.57992         3.07384
O         32.73772        40.34161         3.45435
H         33.46943        40.93299         3.73497
O         31.45678        34.95785         3.19770
H         30.52574        34.75044         3.43475
O         51.78741        27.02521        -1.57695
H         51.03373        26.67742        -2.09930
O         29.64409        22.97923         0.14284
H         29.73500        22.02594         0.35538
O         51.70106        46.84702         1.26746
H         50.84732        47.14012         1.65361
O         38.85865        48.22266         1.79226
H         39.77497        48.35766         2.13930
O         44.14299        54.23709        -4.97442
H         43.26039        54.27404        -5.40838
O         48.12845        53.19950        -3.49530
H         47.35348        53.53183        -4.00007
O         41.56894        27.02627        -1.95722
H         41.53438        27.99678        -2.10002
H         22.19212        27.12795        -1.89950
H         22.09959        29.48366        -1.21347
H         22.04813        31.34161        -0.79799
H         21.96257        33.64426        -0.04761
H         21.94795        35.51863         0.17124
H         21.94557        37.93065         0.38699
H         21.93074        39.77729         0.54512
H         21.95494        42.23527         0.60682
H         22.21797        43.97490         2.23859
H         22.38679        46.40705         2.65596
H         25.63012        24.06522        -3.12899
H         23.47908        25.11246        -2.52638
H         25.49248        49.87311         1.45829
H         23.48644        48.60250         2.11471
H         27.54674        23.10430        -3.36401
H         26.94197        50.79358         0.26921
H         29.29713        21.65913        -2.49501
H         29.03850        51.97356        -0.13871
H         32.80315        19.27216        -1.60371
H         30.71197        20.50669        -1.58059
H         32.75487        54.04502        -0.81861
H         30.64915        52.85222        -0.52552
H         34.55290        18.46729        -1.80173
H         34.41870        54.98544        -1.34335
H         36.66323        17.24067        -1.90630
H         36.53972        56.04612        -1.82816
H         40.46591        15.04115        -1.75374
H         38.29632        16.20144        -1.50785
H         40.49339        57.98374        -2.35130
H         38.33054        56.94070        -1.79309
H         42.89821        15.07271        -1.89825
H         42.83249        57.83584        -3.12281
H         44.98597        16.31399        -2.27932
H         44.78997        56.52850        -3.71629
H         48.65442        18.41120        -1.32134
H         46.70607        17.30259        -2.20907
H         47.86703        54.71233        -0.89720
H         45.68778        55.67573        -1.59467
H         50.21397        19.25171        -0.74698
H         49.98985        53.97492        -1.48634
H         52.30645        20.39858        -0.35894
H         52.15721        52.83594        -1.16084
H         56.07362        22.50246        -0.17775
H         53.95829        21.31777        -0.31597
H         55.58809        50.51352        -2.80358
H         53.65601        51.86649        -1.99370
H         57.73368        23.46311         0.13930
H         58.06071        49.21052        -2.28639
H         59.83055        24.66049         0.50254
H         61.06816        26.75066         1.12264
H         61.07001        29.17080         1.47569
H         61.11152        31.08977         1.43761
H         61.18648        33.50477         1.31984
H         61.14150        35.51711         1.48994
H         61.07079        37.92601         1.26839
H         61.01871        39.85093         1.16100
H         60.93959        42.26131         1.00773
H         60.78801        44.19491         1.22771
H         60.82256        46.58485         0.62592
H         59.88773        48.40679        -0.74801
