         429
 CSIRO Nanostructure Databank - Neutral Graphene Oxide Data Set
C          1.84547         2.21842        -2.54950
C          1.79558         3.60419        -2.39415
C          3.06917         1.55509        -2.56332
C          2.98263         4.36133        -2.26318
C          1.76816         6.55713        -2.44116
C          1.70246         7.91699        -2.35481
C          2.95258         5.81395        -2.11533
C          2.80110         8.69049        -1.75841
C          1.79532        11.05543        -2.11820
C          1.92564        12.36052        -2.41268
C          2.94662        10.12243        -2.19701
C          3.21427        12.85986        -3.02775
C          2.16633        15.23100        -3.42814
C          2.24477        16.58637        -3.36524
C          3.34491        14.37827        -3.17856
C          3.46621        17.28423        -3.01324
C          3.53536        18.71663        -2.99415
C          4.27214         2.28072        -2.40104
C          4.22428         3.69038        -2.24653
C          5.53282         1.59677        -2.35574
C          5.51748         4.47353        -2.22940
C          4.12610         6.49449        -1.72166
C          4.07336         7.93655        -1.43894
C          5.37835         5.84352        -1.61019
C          5.35823         8.66649        -1.26937
C          4.32871        10.75221        -2.15164
C          4.39983        12.22430        -2.28760
C          5.41544        10.02646        -1.45790
C          5.53659        12.88930        -1.88940
C          4.59035        15.07996        -2.72891
C          4.59868        16.55310        -2.65059
C          5.57065        14.39499        -1.81012
C          5.84753        17.18701        -2.37466
C          4.70919        19.36019        -2.69272
C          5.91151        18.62962        -2.40909
C          6.69638         2.24553        -1.94957
C          6.67233         3.67893        -1.67954
C          7.92237         1.53589        -1.81030
C          7.72488         4.30151        -1.05905
C          6.51685         6.50675        -1.07216
C          6.51162         7.91700        -0.81433
C          7.70942         5.73374        -0.80284
C          7.66598         8.60856        -0.29924
C          6.47747        10.82391        -0.75544
C          6.68289        12.19719        -1.35510
C          7.72317        10.03637        -0.40156
C          7.91900        12.85222        -1.26847
C          6.94741        15.01691        -1.92529
C          7.01002        16.41251        -2.14470
C          8.08290        14.25179        -1.61802
C          8.35285        17.08035        -2.26121
C          7.11643        19.27997        -2.11722
C          8.32081        18.55469        -1.91928
C          9.03356         2.13357        -1.20722
C          8.82715         3.43596        -0.47239
C         10.27999         1.50120        -1.13886
C         10.10987         4.17857        -0.22169
C          8.79199         6.36452        -0.18333
C          8.77633         7.75989         0.14462
C          9.93812         5.55025         0.29228
C          9.86676         8.25420         0.89605
C          8.90750        10.82742        -0.24194
C          9.04839        12.12118        -0.78155
C         10.03919        10.34875         0.51628
C         10.39578        12.70776        -0.89692
C          9.37183        14.90574        -1.42744
C          9.46688        16.32195        -1.57946
C         10.50795        14.17453        -1.02670
C         10.65082        16.98913        -1.24601
C          9.50487        19.18378        -1.57868
C         10.70075        18.44555        -1.28548
C         11.42600         2.13729        -0.57988
C         11.32098         3.53287        -0.15127
C         12.63720         1.46494        -0.46992
C         12.51953         4.20464         0.35489
C         11.16322         6.22075         0.86160
C         11.17453         7.69200         0.96836
C         12.43450         5.50742         0.82947
C         12.37797         8.42322         1.11518
C         11.34763        10.68499         0.34823
C         11.60521        11.92076        -0.42507
C         12.45846         9.97698         1.12626
C         12.83959        12.66427        -0.07559
C         11.74490        14.82395        -0.72798
C         11.80352        16.25504        -0.81451
C         12.89388        14.09987        -0.27280
C         12.99891        16.94435        -0.47829
C         11.86856        19.10416        -0.94341
C         13.04028        18.38866        -0.54120
C         13.83535         2.10634         0.00207
C         13.76990         3.49708         0.39024
C         15.02568         1.39766         0.07169
C         14.94446         4.17564         0.85084
C         13.54744         6.19276         1.56371
C         13.60143         7.71374         1.33917
C         14.85217         5.49140         1.31482
C         14.81834         8.40152         1.56984
C         13.81753        10.43590         0.53973
C         13.89940        11.94818         0.42377
C         14.97004         9.79509         1.29529
C         15.19734        12.62394         0.57239
C         14.08925        14.80011         0.07054
C         14.14749        16.22688        -0.05158
C         15.23319        14.09673         0.55504
C         15.36048        16.91460         0.26870
C         14.19321        19.06520        -0.16666
C         15.37638        18.37156         0.23704
C         16.34582         2.06106         0.32673
C         16.21255         3.44689         0.92457
C         17.34436         1.18785         1.11388
C         17.34589         4.04210         1.42189
C         16.03470         6.17152         1.82318
C         16.02242         7.66880         2.02480
C         17.33855         5.50883         1.59841
C         17.32292         8.37607         2.14716
C         16.16599        10.46869         1.57618
C         16.36220        11.87464         1.15472
C         17.33142         9.79588         2.07822
C         17.48080        12.64525         1.74400
C         16.40522        14.77540         0.93955
C         16.47055        16.19050         0.74305
C         17.52541        14.08176         1.57149
C         17.73501        16.87779         1.01984
C         16.47167        19.09008         0.69297
C         17.73322        18.43445         0.99619
C         18.63827         1.93108         1.39328
C         18.61021         3.33123         1.57491
C         19.83946         1.24280         1.60684
C         19.78695         4.01258         1.97720
C         18.56923         6.24550         1.96700
C         18.51733         7.67830         2.33484
C         19.73784         5.43233         2.37290
C         19.76043         8.36595         2.52869
C         18.53551        10.50536         2.36349
C         18.51423        11.94641         2.35734
C         19.75470         9.79549         2.59882
C         19.65395        12.66016         2.97400
C         18.61967        14.80690         2.06812
C         18.74321        16.21009         1.85369
C         19.59468        14.18057         3.04533
C         19.80624        16.95137         2.40298
C         18.74625        19.09634         1.81225
C         19.77657        18.39714         2.37949
C         21.01951         1.91917         1.94479
C         21.01238         3.32304         2.12699
C         22.27197         1.12906         2.21991
C         22.25622         4.06356         2.33950
C         21.00532         6.18748         2.67816
C         20.99195         7.66354         2.60836
C         22.26540         5.45613         2.50608
C         22.22818         8.35379         2.71818
C         21.00167        10.47600         2.78443
C         20.96296        11.91853         3.09450
C         22.22277         9.79431         2.82521
C         22.23092        12.67600         3.12483
C         20.96499        14.83493         3.03996
C         20.96791        16.26612         2.95551
C         22.15449        14.09844         3.21111
C         22.14020        17.01317         3.17802
C         20.84459        19.16602         3.12329
C         22.16495        18.44081         3.08530
C         23.53687         1.94639         2.09723
C         23.50678         3.36675         2.21729
C         24.74184         1.27895         1.94250
C         24.73005         4.10926         2.17631
C         23.48026         6.21185         2.55728
C         23.44923         7.62247         2.75485
C         24.72201         5.53339         2.37940
C         24.71188         8.31789         3.19076
C         23.48951        10.51674         2.99354
C         23.46910        11.98521         3.10281
C         24.68001         9.82460         3.04621
C         24.70298        12.70113         3.16483
C         23.41390        14.80927         3.49137
C         23.39889        16.33239         3.50842
C         24.70362        14.12773         3.28069
C         24.65837        17.03601         3.24802
C         23.35713        19.13088         3.07481
C         24.62220        18.44602         3.05760
C         25.96361         1.99581         1.85932
C         25.94192         3.40235         1.95287
C         27.21646         1.30950         1.70608
C         27.19985         4.13752         1.76101
C         25.93325         6.30441         2.36160
C         25.96500         7.66481         2.64956
C         27.18295         5.62176         1.96059
C         27.19423         8.43044         2.53750
C         25.98797        10.51742         3.36650
C         25.97729        12.01007         3.12049
C         27.20874         9.83105         2.77655
C         27.16268        12.69775         3.10163
C         25.88599        14.87601         3.27205
C         25.87341        16.31585         3.20392
C         27.21120        14.17336         3.41743
C         27.08846        17.03246         2.95601
C         25.82379        19.14500         2.86728
C         27.05724        18.45923         2.79154
C         28.42653         1.97647         1.70134
C         28.48178         3.40085         1.78627
C         29.70887         1.18423         1.69623
C         29.70012         4.10073         1.73084
C         28.46640         6.29647         2.30516
C         28.43546         7.77208         2.30087
C         29.74981         5.54530         2.05466
C         29.64702         8.47674         2.21954
C         28.41489        10.54075         2.66907
C         28.50248        11.99058         3.10713
C         29.61435         9.87737         2.32513
C         29.54558        12.76791         2.31024
C         28.36438        14.91860         2.79116
C         28.31102        16.31396         2.75106
C         29.49809        14.19149         2.27550
C         29.52939        17.09243         2.47626
C         28.22941        19.18724         2.44632
C         29.45082        18.54108         2.21152
C         30.93064         1.99177         1.31228
C         30.92218         3.44209         1.43263
C         32.05581         1.32740         0.95570
C         32.09795         4.19471         1.13859
C         30.94779         6.32047         1.73689
C         30.99231         7.74727         2.25469
C         32.09205         5.66506         1.23280
C         32.06808         8.55679         1.56336
C         30.90027        10.66534         2.23084
C         30.64476        12.08908         1.75698
C         31.97704         9.90491         1.47808
C         31.59835        12.79221         0.98865
C         30.58317        14.89080         1.68015
C         30.72580        16.33159         1.88177
C         31.58908        14.21009         0.95625
C         31.69264        17.08297         1.08769
C         30.58602        19.20968         1.72597
C         31.69037        18.51108         1.15252
C         33.36109         2.02658         0.76254
C         33.25141         3.52654         0.68351
C         34.16643         1.45273        -0.36319
C         34.37811         4.24419         0.19118
C         33.25936         6.38768         0.89607
C         33.30286         7.84468         1.11705
C         34.57714         5.64917         0.71731
C         34.47541         8.64398         0.58899
C         32.91070        10.63063         0.57097
C         32.66807        12.07726         0.27746
C         34.35892        10.16327         0.41493
C         33.73445        12.83519        -0.39493
C         32.62474        14.94967         0.26334
C         32.63234        16.38230         0.28708
C         33.64107        14.25717        -0.46217
C         33.62524        17.11714        -0.43781
C         32.74293        19.21467         0.53069
C         33.71517        18.55243        -0.25781
C         35.12543         2.20925        -0.99750
C         35.30304         3.61711        -0.65493
C         35.96997         1.60896        -1.98837
C         36.37559         4.36109        -1.28660
C         35.65486         6.42550        -0.05444
C         35.61567         7.95126        -0.12056
C         36.50144         5.72951        -1.03557
C         36.38485         8.66183        -1.16351
C         34.98743        10.73711        -0.84798
C         34.72849        12.09609        -1.10403
C         36.08360        10.05241        -1.49449
C         35.43679        12.78980        -2.19660
C         34.56152        15.00892        -1.25820
C         34.55872        16.41533        -1.24487
C         35.40076        14.29082        -2.24431
C         35.51346        17.16734        -2.09125
C         34.79269        19.27977        -0.79110
C         35.66655        18.72013        -1.79878
C         36.98582         2.31815        -2.60457
C         37.22909         3.70120        -2.25336
C         37.79652         1.69590        -3.61986
C         38.23937         4.39989        -2.92864
C         37.60627         6.52017        -1.59927
C         37.44715         7.98532        -1.77673
C         38.55465         5.79105        -2.57629
C         38.39093         8.67709        -2.60400
C         36.93619        10.72417        -2.38114
C         36.59607        12.06829        -2.87481
C         38.33724        10.19121        -2.62040
C         37.65893        12.89890        -3.50428
C         36.56169        15.03582        -2.87773
C         36.71260        16.48960        -2.62838
C         37.69598        14.25914        -3.42058
C         37.79950        17.19784        -3.08516
C         36.92488        19.33352        -2.17622
C         37.88483        18.64736        -2.92299
C         38.73322         2.40904        -4.30801
C         38.95847         3.79661        -4.00976
C         39.85272         4.56403        -4.77715
C         39.34904         6.59191        -3.51569
C         39.37977         8.01679        -3.34624
C         40.00378         5.94052        -4.56550
C         40.40959         8.78499        -4.03947
C         38.99180        10.75223        -3.87679
C         38.69029        12.16913        -4.27693
C         40.26407        10.10298        -4.27296
C         39.66064        12.97598        -5.04382
C         38.92469        14.99362        -3.84413
C         38.98255        16.49503        -3.65489
C         39.78345        14.29734        -4.83440
C         39.98306        17.30723        -4.36116
C         38.98975        19.34136        -3.48406
C         39.97463        18.67776        -4.24042
O         20.07561        12.13290         4.27815
O         38.10934        11.01881        -5.00080
O          3.80080        10.12612        -3.37734
O          3.11256         8.35300        -0.37414
O         32.19803        10.97452        -0.65018
O          4.48858        14.61402        -4.10686
O         16.24277        12.02224        -0.31941
O         34.45770         8.26653         1.99653
O         29.20418         5.76298         3.45717
O         15.83558         6.74751         3.17752
O         11.26272        11.93645        -1.84056
O         18.18758         6.11388         0.53948
O         18.28053        17.62925        -0.10574
O         23.37530        15.56051         4.75920
O         36.48480         7.25661         0.82956
O         10.13469         5.61204         1.75543
O         39.63590        15.55297        -2.68528
O         35.28949        14.80139        -3.60455
O          9.70350         9.47039         1.56102
O         34.92638        18.14267        -2.94822
O         27.15269         5.08990         0.59538
O         20.13273         5.65873         3.76139
O         30.66961        16.72430         3.29996
O         38.92204         6.04670        -1.17903
O         35.26946        12.15773        -3.49561
O          5.85370        11.13580         0.57322
H          5.67238        10.27756         1.01584
O         35.08106         5.46311         2.07257
H         35.34120         6.36185         2.38965
O         34.14999         1.75069         1.99015
H         34.89294         2.39320         2.00583
O         39.15061        10.69145        -1.50992
H         38.88959        10.20300        -0.69995
O         13.23711         6.01492         2.99274
H         14.04199         6.31135         3.48646
O         22.33704        -0.04005         1.39617
H         22.38489         0.24565         0.46108
O         20.95950        20.50073         2.63206
H         21.17310        20.45950         1.67751
O         29.58430         0.02037         0.87237
H         29.41609         0.31168        -0.04689
O         13.87374         9.90749        -0.81236
H         14.64284        10.32415        -1.25859
O         19.02418        14.50385         4.35428
H         19.42398        13.86400         4.98888
O         35.10098        10.75845         1.51170
H         35.00731        10.14949         2.28210
O          8.35825         3.05363         0.86988
H          8.57368         3.78986         1.48379
O         31.33888         7.62248         3.66239
H         30.65674         7.03668         4.06873
O         16.96707         2.23523        -0.99009
H         16.40262         2.84443        -1.51095
O         31.42177        10.82688         3.58128
H         30.68352        11.17609         4.14343
O          5.09184        14.71635        -0.46172
H          5.60139        14.16859         0.17349
O         29.00229        11.96087         4.48369
H         28.70149        12.80588         4.91130
O         27.50590        14.20604         4.88775
H         26.69748        13.89039         5.34889
O          8.68111        17.03077        -3.70020
H          9.54581        17.47970        -3.81601
O         26.14506        10.41257         4.82105
H         25.91987         9.47901         5.06546
O          5.85110         4.72309        -3.65057
H          5.09750         5.21178        -4.04540
O          3.21418        12.36024        -4.38909
H          3.95754        12.80937        -4.85087
O         12.41310        10.39689         2.50588
H         11.55580        10.09378         2.87662
O         24.77602         8.07752         4.67060
H         23.89771         8.31592         5.04021
O         16.77455         0.77050         2.36081
H         16.65682         1.55938         2.92909
H          0.91156         1.64960        -2.65751
H          0.81738         4.10256        -2.36872
H          3.10887         0.46310        -2.68279
H          0.91370         6.01796        -2.87359
H          0.84063         8.45874        -2.77076
H          0.85737        10.66690        -1.69290
H          1.07537        13.04681        -2.28464
H          1.20449        14.74795        -3.65490
H          1.34982        17.19223        -3.57279
H          2.63381        19.29629        -3.24071
H          5.55388         0.51278        -2.54314
H          4.75239        20.45922        -2.69659
H          7.99515         0.50917        -2.20083
H          7.13091        20.37553        -2.00986
H         10.39362         0.49191        -1.56438
H          9.52979        20.27941        -1.47280
H         12.69772         0.41037        -0.77831
H         11.89825        20.20385        -0.95541
H         15.03789         0.34186        -0.23937
H         14.20955        20.16480        -0.19049
H         17.55420         0.26255         0.52338
H         16.38473        20.17526         0.85187
H         19.87032         0.14880         1.49731
H         18.68347        20.18482         1.96354
H         22.20994         0.75594         3.28279
H         20.53545        19.24912         4.20353
H         24.74630         0.18214         1.86608
H         23.34333        20.22936         3.02394
H         27.21362         0.21191         1.63576
H         25.80396        20.23571         2.72860
H         29.87621         0.80742         2.74473
H         28.15139        20.27257         2.28521
H         32.04081         0.22889         0.89184
H         30.55924        20.30555         1.63364
H         34.08991         0.37559        -0.57425
H         32.78154        20.31049         0.61480
H         35.79714         0.55627        -2.25674
H         34.98671        20.30001        -0.42891
H         37.61970         0.63546        -3.85106
H         37.11875        20.37125        -1.86812
H         39.32345         1.93765        -5.10689
H         40.39136         4.08369        -5.60619
H         40.63030         6.51642        -5.26055
H         41.31978         8.26286        -4.36625
H         41.02725        10.67113        -4.82275
H         40.28050        12.46843        -5.79628
H         40.53059        14.87611        -5.39531
H         40.80770        16.80634        -4.88522
H         39.04385        20.43222        -3.36266
H         40.76743        19.26924        -4.71993
