         424
 CSIRO Nanostructure Databank - Neutral Graphene Oxide Data Set
C          2.36424         2.03016         3.24187
C          2.25710         3.41727         3.12527
C          3.39261         1.34241         2.60312
C          3.18736         4.15973         2.36953
C          1.96349         6.31140         2.75100
C          1.87341         7.67645         2.70483
C          3.07240         5.59221         2.17195
C          2.84004         8.46274         2.00765
C          1.80858        10.59711         2.71537
C          1.87489        11.94647         2.89152
C          2.86769         9.85723         2.08134
C          3.04003        12.69822         2.49087
C          2.20445        14.81191         3.51767
C          2.27853        16.18660         3.71206
C          3.09339        14.12243         2.67021
C          3.32933        16.95436         3.11570
C          3.43182        18.39890         3.34996
C          4.35247         2.04874         1.85150
C          4.26490         3.46907         1.74195
C          5.40346         1.36217         1.16437
C          5.26588         4.19123         1.02097
C          4.03174         6.28991         1.42858
C          3.71719         7.72147         1.02199
C          5.17507         5.61207         0.88126
C          4.95561         8.51606         0.57999
C          4.04999        10.59499         1.64198
C          4.11896        12.00766         1.91005
C          5.11241         9.91197         1.04189
C          5.43050        12.73439         1.73487
C          4.03029        14.92709         1.80097
C          4.25115        16.32839         2.29842
C          5.32189        14.21761         1.48482
C          5.29873        17.14447         1.59259
C          4.52349        19.09060         2.97076
C          5.72338        18.33837         2.44858
C          6.36639         2.04954         0.46724
C          6.35502         3.48838         0.42983
C          7.37125         1.29209        -0.36005
C          7.42511         4.20863        -0.16808
C          6.22519         6.30391         0.20571
C          6.16152         7.78363         0.06673
C          7.36331         5.62202        -0.25664
C          7.42765         8.53022        -0.19064
C          6.48692        10.54952         1.00016
C          6.31428        12.05408         0.68452
C          7.44987         9.89454         0.03582
C          7.62078        12.79344         0.48671
C          6.46211        14.90872         1.11308
C          6.52298        16.34770         1.18420
C          7.65831        14.19113         0.67056
C          7.67944        17.03795         0.86545
C          6.75726        19.15523         1.72059
C          7.73530        18.49507         1.02284
C          8.63712         2.07131        -0.59824
C          8.62354         3.49514        -0.58469
C          9.80195         1.37708        -0.89555
C          9.80995         4.21103        -0.86693
C          8.46060         6.35124        -1.02249
C          8.56675         7.82691        -0.70810
C          9.80529         5.65100        -0.93911
C          9.76999         8.49513        -0.94237
C          8.54294        10.70532        -0.48908
C          8.70830        12.11801        -0.08891
C          9.78883         9.95775        -1.00139
C          9.91351        12.79949        -0.39879
C          8.82289        14.90943         0.28684
C          8.84325        16.34181         0.36713
C          9.96463        14.21068        -0.21144
C          9.97012        17.06073        -0.06936
C          8.87174        19.18713         0.46141
C          9.93987        18.50982        -0.05919
C         11.01359         2.06168        -1.14146
C         11.03011         3.49172        -1.10904
C         12.22795         1.35433        -1.36318
C         12.24523         4.17927        -1.31539
C         10.99086         6.35426        -1.07515
C         11.01500         7.79468        -1.13376
C         12.31832         5.64202        -0.96312
C         12.22184         8.50092        -1.32494
C         11.06807        10.67592        -1.02517
C         11.08851        12.08717        -0.85712
C         12.25330         9.94398        -1.27953
C         12.30416        12.79546        -1.06392
C         11.15186        14.93561        -0.54961
C         11.14971        16.35902        -0.49564
C         12.33190        14.22484        -0.93824
C         12.34062        17.07845        -0.81002
C         11.06560        19.28803        -0.69340
C         12.35490        18.51329        -0.80769
C         13.41203         2.02577        -1.57852
C         13.43649         3.46343        -1.58877
C         14.66766         1.23643        -1.84393
C         14.65433         4.16333        -1.83096
C         13.45284         6.38496        -1.61420
C         13.45055         7.77431        -1.63329
C         14.59285         5.61709        -2.22837
C         14.65513         8.50831        -1.94552
C         13.47271        10.65343        -1.50719
C         13.49507        12.08140        -1.42695
C         14.66837         9.93314        -1.85351
C         14.70459        12.79758        -1.67438
C         13.53512        14.93861        -1.18311
C         13.54247        16.36603        -1.09959
C         14.73687        14.23737        -1.54776
C         14.75195        17.08321        -1.32073
C         13.53145        19.20008        -1.00227
C         14.76242        18.51201        -1.24436
C         15.92791         2.04587        -1.69503
C         15.89235         3.46429        -1.83466
C         17.14828         1.39571        -1.53054
C         17.12764         4.18214        -1.92469
C         15.91196         6.33666        -2.11661
C         15.89994         7.78948        -2.15995
C         17.09461         5.61438        -2.10415
C         17.09055         8.49455        -2.30106
C         15.86238        10.66920        -2.08196
C         15.89242        12.07206        -2.00255
C         17.10000         9.97107        -2.56258
C         17.15808        12.77029        -2.11765
C         15.92496        14.95658        -1.77454
C         15.95360        16.38124        -1.64488
C         17.12648        14.25347        -2.36939
C         17.14811        17.12257        -1.85969
C         15.96338        19.21596        -1.41635
C         17.17488        18.53657        -1.68582
C         18.36119         2.10480        -1.54663
C         18.36369         3.49449        -1.79896
C         19.64463         1.37625        -1.22916
C         19.63459         4.22014        -1.81570
C         18.38055         6.29647        -2.33704
C         18.37487         7.80122        -2.46715
C         19.64097         5.63370        -1.96945
C         19.63386         8.53063        -2.21990
C         18.39378        10.65820        -2.16786
C         18.36545        12.08927        -2.07356
C         19.59861         9.96287        -2.18300
C         19.62753        12.80805        -1.63892
C         18.43360        14.94999        -2.08065
C         18.39183        16.42243        -2.21204
C         19.62116        14.28670        -1.95214
C         19.69821        17.18366        -2.08768
C         18.41374        19.25498        -1.65380
C         19.65106        18.61037        -1.70514
C         20.85068         2.03261        -1.90331
C         20.85184         3.53138        -1.70995
C         22.13822         1.38126        -1.51096
C         22.06737         4.25112        -1.54416
C         20.83064         6.37960        -1.86709
C         20.82563         7.82253        -1.99167
C         22.05247         5.68917        -1.55697
C         22.05788         8.54690        -1.75457
C         20.89803        10.68681        -2.46380
C         20.91777        12.13351        -2.03022
C         22.11695         9.94800        -1.95185
C         22.09818        12.81911        -1.98768
C         20.89490        14.99004        -1.85789
C         20.92163        16.41247        -1.82012
C         22.10473        14.26205        -1.78255
C         22.10486        17.10714        -1.51823
C         20.86952        19.26115        -1.41690
C         22.09204        18.55222        -1.35843
C         23.29820         2.10344        -1.28933
C         23.29026         3.55512        -1.32465
C         24.52050         1.42978        -0.99686
C         24.49374         4.26019        -1.06106
C         23.23217         6.40924        -1.26237
C         23.22416         7.85317        -1.32442
C         24.45099         5.70575        -0.96350
C         24.39072         8.59362        -1.01597
C         23.32291        10.64805        -1.80723
C         23.38150        12.07014        -2.36926
C         24.46520         9.96933        -1.30382
C         24.71877        12.84798        -2.06091
C         23.33620        14.96083        -1.57534
C         23.32556        16.38343        -1.37941
C         24.56565        14.25826        -1.51254
C         24.53456        17.08381        -1.12437
C         23.30139        19.22252        -1.09548
C         24.52674        18.52350        -0.99006
C         25.74099         2.09646        -0.82575
C         25.72337         3.56155        -0.86260
C         26.86251         1.27268        -0.45367
C         26.86169         4.33337        -0.47284
C         25.57832         6.42645        -0.52772
C         25.49182         7.90721        -0.25207
C         26.77548         5.74835        -0.18385
C         26.82825         8.59768        -0.36647
C         25.70245        10.70522        -1.05660
C         25.76555        12.07558        -1.27451
C         26.87655         9.98525        -0.61664
C         26.97132        12.79693        -0.97936
C         25.75207        14.94642        -1.17972
C         25.75120        16.36872        -1.00648
C         26.98734        14.22429        -1.00322
C         26.97547        17.07028        -0.77234
C         25.73752        19.20443        -0.75844
C         26.96619        18.50991        -0.65589
C         28.21027         1.66180        -0.53973
C         28.14683         3.76890        -0.47111
C         29.35579         1.21523         0.12547
C         29.21574         4.20898         0.37956
C         27.94097         6.46211         0.21090
C         28.00222         7.89052        -0.01177
C         29.09202         5.73741         0.73859
C         29.23650         8.58155         0.09887
C         28.11768        10.67660        -0.48812
C         28.15498        12.09331        -0.63718
C         29.30225         9.96596        -0.13601
C         29.38516        12.79799        -0.46270
C         28.19127        14.92748        -0.73987
C         28.19408        16.36255        -0.66256
C         29.40856        14.21351        -0.53840
C         29.42180        17.06327        -0.43448
C         28.18070        19.19649        -0.45058
C         29.41032        18.50619        -0.34280
C         30.54334         2.03339         0.27589
C         30.51222         3.48192         0.41312
C         31.76334         1.37887         0.49565
C         31.66621         4.18460         0.75932
C         30.38272         6.45303         0.99920
C         30.44306         7.89307         0.60925
C         31.68599         5.65095         1.19377
C         31.75536         8.55600         0.41771
C         30.56131        10.67199        -0.03422
C         30.59232        12.07468        -0.21462
C         31.77558         9.96651         0.19703
C         31.84436        12.77065        -0.19990
C         30.64799        14.91951        -0.36615
C         30.63927        16.35856        -0.30271
C         31.85607        14.20926        -0.26147
C         31.86685        17.06411        -0.08033
C         30.62536        19.19760        -0.15592
C         31.85575        18.51075        -0.03580
C         32.96497         2.08649         0.75022
C         32.92132         3.51503         0.85501
C         34.19263         1.40974         0.92976
C         34.13514         4.24575         1.08666
C         32.88773         6.31831         0.46731
C         32.92989         7.82719         0.53803
C         34.15737         5.65692         0.95265
C         34.19410         8.50403         0.54428
C         33.03595        10.64509         0.10763
C         33.05172        12.05067        -0.11876
C         34.23373         9.89388         0.30381
C         34.30943        12.80784        -0.49248
C         33.10493        14.91739        -0.04642
C         33.07973        16.36378         0.07690
C         34.29908        14.22396         0.01714
C         34.31506        17.07398         0.22675
C         33.07293        19.20576         0.11084
C         34.30454        18.52002         0.21877
C         35.37858         2.11006         1.24473
C         35.35510         3.54193         1.33612
C         36.59821         1.42501         1.48031
C         36.54181         4.24897         1.68418
C         35.32976         6.40597         1.20154
C         35.38098         7.77486         0.92553
C         36.48704         5.74414         1.92530
C         36.56295         8.57976         1.40977
C         35.54463        10.55959         0.10776
C         35.59286        12.02293        -0.23072
C         36.81818         9.82187         0.54065
C         36.88654        12.78591        -0.03439
C         35.53582        14.88760         0.55291
C         35.53767        16.38261         0.35753
C         36.85503        14.23628         0.20642
C         36.75980        17.08349         0.47064
C         35.52595        19.21514         0.33584
C         36.74960        18.52788         0.45896
C         37.75935         2.12316         1.82782
C         37.71805         3.55316         1.93666
C         38.99388         1.42454         2.06705
C         38.91666         4.29542         2.46730
C         37.82540         6.43193         1.71033
C         37.86165         7.81121         1.50477
C         39.01913         5.71729         1.96431
C         39.10346         8.52954         1.54354
C         37.86532        10.73671         1.21839
C         38.10440        12.04328         0.47897
C         39.15051         9.95415         1.41791
C         39.26672        12.82537         0.93745
C         38.02374        14.92918         0.49414
C         37.99665        16.37926         0.61715
C         39.27088        14.23140         0.77794
C         39.20002        17.09984         0.79051
C         37.97314        19.22685         0.59182
C         39.18308        18.54147         0.76173
C         40.17042         2.10960         2.29182
C         40.20365         3.52382         2.35093
C         41.41817         4.23397         2.36143
C         40.26931         6.37788         1.97229
C         40.31755         7.80483         1.75453
C         41.45593         5.61497         2.22300
C         41.53531         8.53174         1.80336
C         40.36164        10.65249         1.51781
C         40.39785        12.12323         1.41294
C         41.55796         9.90724         1.69526
C         41.54748        12.86956         1.73369
C         40.44593        14.96095         1.10659
C         40.44954        16.41837         0.99738
C         41.56858        14.25217         1.57722
C         41.61919        17.16536         1.12033
C         40.41298        19.25696         0.90040
C         41.59872        18.57816         1.06454
O         37.90149        12.22237        -0.94727
O         19.08502        16.93082        -3.40628
O          5.14641         8.30562        -0.88928
O         23.31739        11.85217        -3.77718
O         18.43265         6.93731        -3.66801
O          8.78546        10.51120        -1.92126
O         28.43191         2.78114        -1.39988
O         28.76485         4.69207         1.69223
O         30.24420         7.47161         2.04598
O         35.70660        11.01237        -1.29193
O         37.39240        11.21557         2.49943
H         37.07942        10.43867         3.02531
O          8.06663         6.27227        -2.43567
H          7.30515         6.87776        -2.56355
O         36.21938         5.94540         3.35914
H         36.91322         5.42672         3.84051
O         32.70792         5.99507        -0.94807
H         33.46843         6.36647        -1.44325
O         19.59493        12.72990        -0.16377
H         18.79040        13.20069         0.14142
O         36.18872         8.93151         2.78225
H         36.07894         8.07438         3.26350
O         34.23003        12.97336        -1.94952
H         34.56195        12.13171        -2.34100
O          5.59080        12.14344        -0.56303
H          6.12198        11.70913        -1.26387
O          6.39311        17.76444         3.61986
H          6.69798        18.50688         4.18181
O         25.10894         8.02653         1.17197
H         25.82502         7.60928         1.69793
O         16.94391        14.38171        -3.82636
H         17.30366        15.25299        -4.10099
O         12.64669         5.65844         0.48822
H         11.90391         5.21774         0.95453
O         19.85655         1.39885         0.18864
H         19.03612         1.09814         0.62953
O         38.64431         4.45026         3.93104
H         39.45673         4.82967         4.33143
O         14.28864         5.59220        -3.68479
H         15.13824         5.49377        -4.16647
O          4.67831        17.63065         0.37018
H          4.24553        16.84959        -0.05062
O         20.96639        10.68150        -3.92121
H         21.85515        11.10848        -4.13955
O          3.33557        15.10223         0.48652
H          2.40268        15.33323         0.68657
O         17.07071        10.07552        -4.03458
H         17.94230         9.77270        -4.37242
O         35.42943        14.68917         2.03042
H         34.67069        15.22963         2.34026
O          2.84520         7.58992        -0.14568
H          3.43351         7.65480        -0.93675
O         25.38044        13.08114        -3.33562
H         24.77003        12.65439        -4.00765
O         20.66782         1.78689        -3.33644
H         21.39806         2.23392        -3.81405
O         11.27334        20.53565        -0.02104
H         11.55302        20.34411         0.89723
O          6.77209         0.97684        -1.63837
H          6.58121         1.82102        -2.09734
O          6.11291        12.64615         3.04134
H          5.53412        13.07773         3.70590
O         14.70894         0.05436        -1.03322
H         14.64984         0.32590        -0.09464
O         31.96430         5.62928         2.60363
H         31.49157         6.39594         3.00463
O          7.10753        10.33554         2.29938
H          6.78392        11.03980         2.91524
O         37.43372         9.29649        -0.65174
H         37.36449        10.00326        -1.33837
H          1.62165         1.47814         3.83479
H          1.42444         3.91872         3.63532
H          3.46461         0.24846         2.68306
H          1.19811         5.75854         3.31056
H          1.06858         8.16914         3.26802
H          0.89345        10.07030         3.01716
H          1.01534        12.47411         3.32613
H          1.45110        14.24634         4.08468
H          1.56372        16.68324         4.38283
H          2.57435        18.90493         3.81932
H          5.42441         0.26229         1.18845
H          4.59460        20.17574         3.14380
H          7.60953         0.31142         0.12398
H          6.81644        20.24445         1.87202
H          9.79132         0.27740        -0.91451
H          8.88900        20.28710         0.48362
H         12.22076         0.25459        -1.35515
H         10.74293        19.55132        -1.74176
H         14.63064         0.87571        -2.91280
H         13.52391        20.29988        -0.98953
H         17.15589         0.30323        -1.39723
H         15.96953        20.31114        -1.31518
H         19.56673         0.30666        -1.57922
H         18.38085        20.33350        -1.43778
H         22.17320         0.28124        -1.48840
H         20.86595        20.34129        -1.20672
H         24.50099         0.33142        -0.93055
H         23.29548        20.31667        -0.97736
H         26.63096         0.27386        -0.05335
H         25.73036        20.30087        -0.66412
H         29.35621         0.22336         0.60095
H         28.17286        20.29435        -0.37588
H         31.79660         0.28053         0.44741
H         30.61804        20.29705        -0.11172
H         34.22049         0.31283         0.84792
H         33.06710        20.30582         0.13115
H         36.62258         0.32738         1.40907
H         35.52292        20.31537         0.33647
H         38.99817         0.32734         1.99881
H         37.96955        20.32686         0.57522
H         41.11926         1.55679         2.36715
H         42.36248         3.67190         2.42125
H         42.43366         6.11348         2.22935
H         42.48760         8.00207         1.93906
H         42.52549        10.42537         1.73826
H         42.44725        12.36894         2.11640
H         42.48284        14.79485         1.85367
H         42.58667        16.66369         1.25771
H         40.39609        20.35582         0.86839
H         42.54338        19.13136         1.16206
