         661
 CSIRO Nanostructure Databank - Neutral Graphene Oxide Data Set
C          6.21309        31.47999         1.71844
C          6.12421        32.83073         1.57253
C          8.84738        27.29632         1.44600
C          8.78303        28.70187         1.29605
C          7.57462        29.41361         1.65765
C          8.39057        31.42346         0.48252
C          7.39679        30.73559         1.34138
C          8.25530        32.91313         0.25424
C          7.23712        33.62243         1.06901
C          8.72714        35.62164         1.18000
C          7.41029        34.92679         1.41238
C          8.63495        37.12158         1.20457
C         10.99885        23.03908         0.06937
C         11.02586        24.43195         0.25673
C          9.92728        25.14158         0.83104
C         11.22355        27.24211         0.75995
C          9.96008        26.53169         1.01804
C         11.16986        28.78767         0.61924
C          9.86230        29.43284         0.72578
C         10.77619        31.49452        -0.27758
C          9.71400        30.78880         0.28198
C         10.70303        32.93967        -0.61003
C          9.43120        33.68027        -0.30002
C         10.80974        35.82979        -0.15662
C          9.42742        35.19434        -0.12327
C         10.89029        37.18916         0.22221
C          9.69758        37.86657         0.76453
C         10.87862        40.03337         0.75151
C          9.70498        39.30264         0.85844
C         10.89698        41.44843         0.79398
C         13.28910        18.84327        -1.35378
C         13.09958        20.28346        -1.45173
C         12.07738        20.93812        -0.72956
C         13.10761        23.12006        -1.19488
C         12.03735        22.35129        -0.62404
C         13.20842        24.51226        -0.92461
C         12.18821        25.17458        -0.18919
C         13.45367        27.28524        -0.36921
C         12.30656        26.55818         0.05336
C         13.41220        28.73712        -0.45392
C         12.22940        29.41829        -0.16476
C         13.22520        31.53645        -1.16326
C         12.00623        30.77443        -0.66064
C         13.23724        33.05036        -1.23845
C         11.96186        33.72377        -0.75148
C         13.25654        35.86912        -0.85225
C         11.97310        35.09775        -0.56846
C         13.30454        37.26147        -0.24867
C         12.10341        37.90213         0.16554
C         13.33727        40.10390         0.24005
C         12.19392        39.28109         0.77330
C         13.32399        41.46929         0.33176
C         12.09109        42.18541         0.65307
C         13.29777        44.32720         0.46484
C         12.11516        43.59193         0.71481
C         13.31020        45.76253         0.67248
C         15.73677        14.62273        -0.33472
C         15.68711        16.11529        -0.62718
C         14.55204        16.76722        -1.00616
C         15.77758        18.85116        -1.67804
C         14.50668        18.18155        -1.39759
C         15.90779        20.00947        -2.41407
C         13.98310        21.09387        -2.20696
C         15.14309        23.28504        -2.58934
C         14.07867        22.49376        -2.02941
C         15.32587        24.61941        -2.22293
C         14.36257        25.23678        -1.34615
C         15.81071        27.26653        -1.22934
C         14.52663        26.58539        -0.97287
C         15.83380        28.76374        -1.16049
C         14.55362        29.46545        -0.95146
C         15.75747        31.59632        -1.19473
C         14.52028        30.84201        -1.12496
C         15.75767        32.94320        -0.85881
C         14.44345        33.59977        -0.46534
C         15.74637        35.74741        -0.09469
C         14.49953        35.08273        -0.58390
C         15.78610        37.22006        -0.53930
C         14.51082        37.93754        -0.21563
C         15.84684        40.11027        -0.07329
C         14.52590        39.42925        -0.38117
C         15.78177        41.54603         0.02553
C         14.55485        42.22493         0.11383
C         15.70817        44.42127        -0.18130
C         14.49783        43.64938         0.13984
C         15.68954        45.93586         0.07045
C         14.43969        46.52301         0.58580
C         15.75024        48.68534         0.95214
C         14.40483        47.98630         0.97804
C         15.78674        50.04039         1.17926
C         18.05620        11.20202         2.46151
C         18.08258        12.35555         1.72087
C         16.90199        12.95638         1.14533
C         18.23230        14.82958         0.31312
C         16.96219        14.13044         0.43331
C         18.23259        16.10075        -0.44449
C         16.95311        16.87424        -0.53641
C         18.31581        18.87635        -1.41202
C         17.00036        18.27238        -1.08234
C         18.33887        20.21150        -2.00706
C         17.12612        20.80364        -2.49103
C         18.37460        22.88070        -3.00025
C         17.16677        22.11322        -3.00583
C         18.41619        24.30390        -3.15303
C         16.46988        25.41455        -2.64471
C         18.12653        27.30227        -2.26075
C         16.82395        26.61773        -2.09485
C         18.17243        28.65822        -2.06142
C         16.87845        29.46856        -2.01230
C         18.19143        31.55209        -1.43940
C         17.00038        30.90212        -1.52963
C         18.28682        32.91335        -0.80582
C         16.98814        33.68603        -0.79084
C         18.24061        35.81564        -0.72550
C         17.01726        35.04819        -0.55295
C         18.26780        37.21887        -0.59071
C         17.04976        37.90907         0.00029
C         18.40290        40.05872         0.02758
C         17.03224        39.41677        -0.12861
C         18.36404        41.57858         0.03685
C         17.03790        42.30749         0.12756
C         18.20404        44.46090        -0.15931
C         17.01168        43.74908        -0.13044
C         18.19779        45.90754         0.08195
C         16.97764        46.59961         0.33770
C         18.22416        48.63945         0.89676
C         16.98033        47.95425         0.73921
C         18.25480        50.03029         1.18673
C         17.02458        50.76845         1.27271
C         18.29758        52.84889         1.58867
C         17.06187        52.15372         1.44405
C         18.35215        54.25043         1.67411
C         20.43814         7.36678         4.45724
C         20.43657         8.72046         4.05264
C         19.24233         9.32221         3.56480
C         20.46873        11.37208         3.09879
C         19.25992        10.60709         3.02955
C         20.42893        12.72233         2.49016
C         19.43852        12.92242         1.36048
C         20.67565        15.08235         0.76762
C         19.41200        14.33984         0.83379
C         20.73602        16.33428         0.05961
C         19.51664        16.85269        -0.58919
C         20.71402        19.09707        -0.82818
C         19.46754        18.27151        -0.98634
C         20.82502        20.12579        -1.93195
C         19.54930        20.88470        -2.16345
C         20.77273        23.00861        -2.56814
C         19.58001        22.23586        -2.60114
C         20.74793        24.40451        -2.58669
C         19.50646        25.09312        -2.77113
C         20.72019        27.28292        -2.41490
C         19.43039        26.49478        -2.14366
C         20.72808        28.72550        -2.32606
C         19.46978        29.35776        -1.86263
C         20.70194        31.61219        -1.85489
C         19.48005        30.82902        -1.58432
C         20.64465        33.04012        -1.72499
C         19.46131        33.71391        -1.31690
C         20.61853        35.87413        -1.39969
C         19.42690        35.11974        -1.17342
C         20.59649        37.30387        -1.27902
C         19.43467        37.97411        -0.92392
C         20.70983        40.21250        -1.04362
C         19.35719        39.49742        -1.03703
C         20.75435        41.67924        -0.84876
C         19.52763        42.36073        -0.41114
C         20.74956        44.48843        -0.26639
C         19.44714        43.74464        -0.35223
C         20.66555        46.02209        -0.39161
C         19.41667        46.59330         0.23344
C         20.70388        48.58211         0.92486
C         19.44871        47.93673         0.67501
C         20.72462        49.95044         1.30174
C         19.50000        50.69563         1.36624
C         20.75913        52.75888         1.88459
C         19.52838        52.09755         1.61524
C         20.79826        54.18156         2.01820
C         19.58604        54.93470         1.82192
C         20.89338        57.01857         1.83657
C         19.65639        56.34273         1.76417
C         20.96613        58.41936         1.64846
C         22.83809         4.70192         5.53438
C         21.64198         5.34324         5.21022
C         22.86930         7.43515         4.79711
C         21.63383         6.71251         4.83178
C         22.88504         8.82373         4.45909
C         21.64812         9.48703         4.10227
C         22.87020        11.67408         3.82260
C         21.62560        10.85488         3.71164
C         22.91831        12.98491         3.07900
C         21.68042        13.54364         2.43879
C         23.05574        15.48349         1.55417
C         21.80680        14.62824         1.44918
C         23.18875        16.49537         0.44440
C         21.94349        17.05469        -0.07187
C         23.23306        18.94538        -1.00832
C         21.99538        18.30991        -0.72024
C         23.29076        20.26006        -1.47509
C         22.02300        20.98668        -1.64815
C         23.30210        23.00080        -2.60504
C         22.03009        22.38271        -2.11044
C         23.22771        24.49102        -2.33217
C         22.00493        25.14053        -2.38721
C         23.18592        27.31791        -2.66892
C         21.92673        26.59088        -2.41717
C         23.15759        28.82835        -2.76256
C         21.88962        29.50116        -2.42443
C         23.11169        31.70679        -2.33412
C         21.89540        30.94493        -2.18948
C         23.09957        33.10290        -2.16841
C         21.85741        33.78801        -1.89044
C         23.08817        35.88455        -1.40380
C         21.82403        35.18323        -1.69040
C         23.08896        37.37512        -1.23733
C         21.81230        38.05871        -1.75905
C         23.09366        40.25355        -1.77830
C         21.82788        39.54096        -1.43162
C         23.09120        41.78138        -1.84429
C         21.89238        42.39902        -1.13984
C         23.17021        44.57185        -0.65141
C         21.87385        43.92603        -1.14833
C         23.14627        45.76101         0.04876
C         21.94177        46.56287         0.22079
C         23.14842        48.38713         1.42151
C         21.92429        47.80698         0.82464
C         23.18423        49.83916         1.77994
C         21.94552        50.63047         1.62338
C         23.20326        52.60287         2.47556
C         21.96180        51.97997         1.94917
C         23.21727        54.10809         2.66970
C         22.02231        54.87404         2.24662
C         23.36686        56.96809         2.18625
C         22.09770        56.26984         2.10751
C         23.41128        58.36577         1.92188
C         22.20275        59.09922         1.66312
C         23.51402        61.14969         1.41971
C         22.28170        60.49546         1.42187
C         24.04959         5.38761         5.48490
C         25.31580         7.46313         5.03667
C         24.09138         6.76121         5.11447
C         25.34796         8.82534         4.66970
C         24.11543         9.50240         4.40512
C         25.44215        11.45886         3.60478
C         24.17547        11.00337         4.30134
C         25.47414        12.60324         2.69105
C         24.20411        13.36942         2.41107
C         25.55258        15.14973         1.38331
C         24.32436        14.68467         1.76500
C         25.68405        16.30458         0.42587
C         24.39615        17.00529         0.08409
C         25.69216        19.08750        -0.60019
C         24.51627        18.16828        -0.88487
C         25.73115        20.36849        -1.09126
C         24.52039        21.00135        -1.62204
C         25.82479        23.00948        -2.35075
C         24.52814        22.31241        -2.06400
C         25.78204        24.51887        -2.16962
C         24.49095        25.19995        -2.06446
C         25.75552        27.40955        -2.54656
C         24.48268        26.71557        -2.24218
C         25.66607        28.85383        -2.76496
C         24.46159        29.52918        -2.68426
C         25.64457        31.77491        -2.83235
C         24.36859        31.00815        -2.75481
C         25.63466        33.21076        -2.40801
C         24.34147        33.88508        -2.11529
C         25.56739        35.85743        -1.03252
C         24.35010        35.16481        -1.61170
C         25.65067        37.35536        -1.30608
C         24.39434        38.17498        -1.05420
C         25.70256        40.32899        -1.85353
C         24.39767        39.51423        -1.77669
C         25.60979        41.55737        -0.91285
C         24.44276        42.44407        -1.38720
C         25.70817        44.42572        -0.33328
C         24.44922        43.86209        -0.89086
C         25.69697        45.71837         0.14702
C         24.41525        46.31210         0.58321
C         25.66239        48.51315         0.93916
C         24.44062        47.65914         1.21407
C         25.70006        49.84243         1.65725
C         24.48179        50.56604         1.85657
C         25.75984        52.64063         2.26020
C         24.48684        51.89152         2.26542
C         25.82183        54.05571         2.74179
C         24.53184        54.83694         2.80947
C         25.81625        56.95656         2.45139
C         24.56892        56.28216         2.49089
C         25.85423        58.31718         2.16250
C         24.66323        59.05054         1.91522
C         24.69379        60.44701         1.65717
C         26.58949         9.51463         4.51391
C         27.89880        11.36130         3.44781
C         26.64139        10.78841         3.89204
C         27.96209        12.56403         2.78717
C         26.76299        13.26801         2.41596
C         28.03704        15.30935         1.77224
C         26.80357        14.52612         1.80162
C         27.97600        16.67019         1.46874
C         26.73843        17.27289         0.91638
C         28.09018        19.33027         0.16768
C         26.79418        18.62434         0.27018
C         28.14733        20.56533        -0.45053
C         26.95678        21.16664        -1.02796
C         28.24950        23.13448        -1.85143
C         26.98148        22.42262        -1.60038
C         28.24345        24.57367        -2.17331
C         26.97335        25.25906        -2.23871
C         28.26859        27.28071        -2.99423
C         26.94986        26.70474        -2.46825
C         28.25307        28.81738        -3.11964
C         26.94203        29.56708        -3.08536
C         28.15366        31.60484        -2.17573
C         27.01629        31.11269        -3.04812
C         27.96338        32.82986        -1.30111
C         26.87576        33.77211        -1.81863
C         28.04656        35.79035        -1.08117
C         26.84957        35.14900        -1.31825
C         28.17280        37.26128        -1.38944
C         26.84234        37.99433        -1.40662
C         28.17815        40.14743        -1.04069
C         26.95000        39.47276        -1.58152
C         28.14655        41.59357        -0.71208
C         26.93566        42.30440        -0.77636
C         28.19720        44.33708        -0.24964
C         26.94973        43.68322        -0.46156
C         28.17795        45.79365        -0.01044
C         26.91868        46.42472         0.42713
C         28.18334        48.35722         1.30037
C         26.94269        47.71297         0.92886
C         28.08008        49.56921         2.02201
C         26.93789        50.40836         1.99325
C         28.40184        52.57454         2.49382
C         27.06739        51.88221         2.11648
C         28.26941        54.08237         2.37146
C         27.11470        54.76219         2.52967
C         27.10334        56.24886         2.82768
C         29.25039        13.09996         2.21250
C         30.57626        15.08144         1.50227
C         29.33561        14.63704         2.27708
C         30.98697        16.37319         1.57094
C         29.09529        17.58018         1.54361
C         30.59789        19.12605         0.17693
C         29.25033        18.72861         0.78197
C         30.68017        20.61253        -0.12199
C         29.39305        21.40569        -0.29172
C         30.74343        23.29810        -1.38294
C         29.50247        22.49693        -1.34493
C         30.74481        24.57916        -1.87115
C         29.48324        25.29336        -2.14239
C         30.73434        27.45326        -1.98397
C         29.48970        26.67723        -2.33434
C         30.75761        28.91324        -2.40068
C         29.56481        29.65496        -2.99858
C         30.57812        31.72202        -1.86955
C         29.34530        30.95960        -2.21807
C         30.47373        32.99805        -1.15565
C         29.24597        33.62826        -1.04721
C         30.23585        35.62875         0.15224
C         29.19262        35.01441        -0.74906
C         30.14110        37.15703         0.18620
C         29.19241        37.93899        -0.50798
C         30.35229        40.00181         0.19188
C         29.24167        39.33532        -0.40631
C         30.50224        41.42134         0.09040
C         29.37064        42.22617        -0.35262
C         30.78656        44.32171        -0.29174
C         29.41336        43.64104        -0.23409
C         30.80948        45.82076         0.14244
C         29.46255        46.50928         0.25213
C         30.70206        48.52310         0.91011
C         29.45029        47.81252         0.96332
C         30.90642        49.88817         1.09439
C         29.94469        50.73435         1.76628
C         29.56336        52.03890         1.64414
C         32.05493        17.13833         0.97971
C         33.10455        19.23136         0.42953
C         31.91570        18.49712         0.65886
C         33.14076        20.55410        -0.05620
C         31.87613        21.21717        -0.37916
C         33.29511        23.15468        -1.32139
C         31.96205        22.49941        -1.13181
C         33.32615        24.58034        -1.80161
C         32.03194        25.26773        -2.17941
C         33.27024        27.51115        -1.99384
C         32.01848        26.76715        -2.48176
C         33.20978        28.89213        -1.97538
C         31.93796        29.58908        -2.20094
C         33.10500        31.69000        -1.39378
C         31.94041        31.07262        -2.03454
C         32.98483        32.95094        -0.59028
C         31.72477        33.75590        -0.88815
C         32.87656        35.61715         0.40970
C         31.62999        35.09898        -0.22194
C         32.87820        36.74941         1.20363
C         31.03765        37.84778         0.99702
C         32.56706        39.80812         1.35591
C         31.34271        39.22544         0.86549
C         32.65905        41.23439         1.29202
C         31.66178        42.01796         0.62719
C         32.88303        44.11842         1.39216
C         31.86368        43.48606         0.46781
C         32.82035        45.56900         1.67374
C         31.80222        46.29313         1.17283
C         31.84544        47.63502         0.47417
C         34.36069        21.25618        -0.12766
C         35.61339        23.35189        -0.51428
C         34.46409        22.58550        -0.61400
C         35.65461        24.73678        -0.91100
C         34.51319        25.39157        -1.46608
C         35.69076        27.52045        -1.38540
C         34.50390        26.80010        -1.66817
C         35.75993        28.96113        -1.65296
C         34.47301        29.68248        -1.98293
C         35.62016        31.83635        -1.15507
C         34.43902        31.21335        -1.87076
C         35.52054        33.16884        -0.69953
C         34.24645        33.79258        -0.53433
C         35.33810        35.81983         0.40725
C         34.15436        35.08100         0.02483
C         35.24613        37.12001         0.98054
C         33.96590        37.66251         1.29341
C         34.98020        39.73796         2.01314
C         33.78328        39.03892         1.62996
C         34.79465        41.06662         2.70290
C         33.72882        41.89713         2.02339
C         33.72272        43.24451         2.21824
C         36.83211        25.46946        -0.68908
C         38.07292        27.59017        -0.72138
C         36.87728        26.85876        -0.93998
C         38.11741        29.01009        -0.75530
C         36.91925        29.73848        -1.16091
C         38.14347        31.87799        -0.83200
C         36.84920        31.12010        -1.03349
C         37.97160        33.28912        -0.32756
C         36.71713        33.89859        -0.28564
C         37.79407        35.96179         0.59554
C         36.61431        35.23425         0.22093
C         37.67990        37.28497         1.09118
C         36.42173        37.87573         1.29140
C         36.23380        39.17116         1.87996
C         39.23801        29.68871        -0.28125
C         40.44405        31.91273         0.07958
C         39.13969        31.14576         0.06732
C         40.41719        33.25967         0.10062
C         39.14496        33.98846         0.08045
C         39.05737        35.31412         0.49548
O         17.85411        42.01641         1.35318
O         18.97965        15.98636        -1.70243
O         31.86454        34.97612        -1.66629
O         24.84271        31.57376        -4.04820
O         26.61693        33.91308        -3.26583
O         15.99921        22.69249        -3.53308
O          9.72003        33.30184        -1.67915
O         23.66383        39.62425        -3.00994
O         20.59070        13.82571         3.41036
O         26.27391        18.43177         1.67421
O         24.63530        12.30751         1.47646
O         23.01036        48.80490         2.82536
O         16.35047        27.98475        -0.05332
O         15.56526        45.38256        -1.28161
O         29.08974        22.21475        -2.71352
O         24.52753        46.49645         2.07080
O         24.40690        26.14079        -0.91189
O         26.44622        52.52296         0.95401
O         17.25586        24.88276        -3.66575
O         32.76788        22.26222        -2.34992
O         25.23911        54.40436         4.03301
O         31.73997        37.09774         1.93710
O         28.82456        46.58559        -1.07677
O         12.30084        30.93726        -2.12136
O         22.97610        53.20813         3.79605
O         22.90330        36.55254        -0.04415
O         30.16175        17.22548         2.36825
O         28.03631        39.86350        -2.50408
O         33.18130        43.84954        -0.05480
O         24.76595        43.49985        -2.31710
O         22.78712        12.97944         4.52264
O         23.15676        27.97052        -3.97070
O         14.80522        20.47228        -3.16024
O         19.64227        29.85685        -0.46177
O         27.52346        32.34803        -0.06683
O         32.87138        24.62823        -3.20013
O         16.89373        18.01534         0.38295
O         35.37393        29.26953        -3.05382
O         21.92081        22.08898        -0.67569
O         11.63891        28.12537         1.83869
O         29.20075        49.98878         2.74129
O         27.52198        29.11909        -4.35501
O          7.73132        31.96856        -0.71628
O         31.38834        31.91310        -3.11403
O         31.51867        46.84481        -0.75985
O         25.44585        48.90753        -0.46830
H         26.22551        49.42487        -0.76456
O         31.14372        44.25894        -1.68032
H         32.06709        44.58833        -1.74986
O         25.27053        41.07048         0.40317
H         25.30248        41.81584         1.03846
O         30.47171        18.53321        -1.17537
H         31.23136        18.84885        -1.71154
O         24.44200        38.55810         0.34214
H         24.22803        37.76140         0.87697
O         28.66399        52.32917         3.89087
H         28.93508        51.38536         3.97721
O         15.67036        35.59523         1.35877
H         16.34634        36.20040         1.76013
O         29.47971        14.96994         3.67400
H         29.67810        15.93410         3.72044
O         25.78472        40.84690        -3.18773
H         26.73924        40.86547        -3.43787
O         15.71850        13.91819        -1.59659
H         16.50229        14.19914        -2.11357
O         28.33669        26.74265        -4.35159
H         27.90961        27.40956        -4.94055
O         22.86493        16.27247         2.77871
H         23.60419        16.91477         2.84261
O          8.65547        35.73980        -1.21513
H          8.88860        35.22083        -2.01719
O         29.95181        30.01690        -4.33490
H         29.20446        30.54293        -4.70954
O         19.47332        26.17671        -0.71297
H         19.36359        27.01238        -0.20908
O         24.79548        17.58742        -2.21755
H         23.94937        17.23552        -2.56963
O         21.11476        19.39906        -3.15851
H         21.15101        20.04037        -3.89912
O         15.89309        37.22838        -1.99407
H         15.05033        36.83349        -2.34614
O         22.95010        42.10781        -3.25043
H         23.75319        41.75240        -3.69950
O         21.18476        44.21502         1.10320
H         20.44188        44.42063         1.70925
O         21.76555        37.88714        -3.20103
H         22.46191        38.47024        -3.59417
O         26.08319        22.77972        -3.79487
H         27.05496        22.82080        -3.94192
O         19.96060        12.10185         0.26467
H         19.34536        12.18605        -0.49411
O         25.42118        35.72314         0.42608
H         24.45888        35.80937         0.63617
O         30.82902        27.43257        -0.52018
H         30.03047        27.86196        -0.14724
O         29.33925        12.66762         0.84452
H         28.51995        12.94158         0.38092
O          9.61934        35.18315         2.25528
H          9.31532        35.59341         3.09172
O         17.13508        37.70117         1.44745
H         17.92429        38.23019         1.74115
O         32.76509        32.49238         0.80584
H         33.59208        32.06649         1.11763
O         16.31470        29.50502        -3.35371
H         16.91507        30.01930        -3.93217
O         29.21587        22.15705         0.95785
H         29.03039        21.51319         1.67434
O         28.71067        37.26573        -2.74005
H         28.73976        38.20858        -3.03472
O         36.01636        41.79785         2.79823
H         36.26593        42.09571         1.89947
O         20.56899        46.49928        -1.75475
H         21.09901        45.90662        -2.34297
O         18.57923        32.65430         0.61617
H         19.09525        31.81974         0.67285
O         13.28977        36.12210        -2.32237
H         13.26812        35.22163        -2.74580
O         14.19991        33.28926         0.94294
H         14.78702        33.88937         1.46804
O         13.46702        48.68288         0.14124
H         13.74978        48.57134        -0.78982
O         29.96823        35.11003         1.47903
H         28.99903        35.03386         1.60480
O         14.36861        39.61224        -1.83614
H         15.06033        39.05191        -2.26452
O         26.20830        15.72215        -0.80570
H         25.89862        16.28502        -1.56084
O         20.55790        19.82076         0.42207
H         20.52305        19.17381         1.15711
O         38.59547        31.18320         1.42737
H         39.26203        30.79082         2.02904
O         27.27742        56.38254         4.25188
H         26.60507        55.79849         4.67454
O         38.75552        31.95270        -2.14980
H         38.08172        32.28579        -2.77928
O         32.02084        26.91992        -3.91003
H         32.58458        26.20248        -4.28069
O         27.44026        31.54472        -4.36538
H         26.64695        31.52024        -4.94737
O         34.53785        31.74748        -3.23580
H         33.79958        31.37317        -3.76479
O         24.37141        11.42405         5.69651
H         23.97942        12.32701         5.77455
O         21.65770        44.28902        -2.53213
H         22.25645        43.72099        -3.08637
O         18.74301        39.79969        -2.31425
H         19.28910        39.39343        -3.02080
O         23.31116        22.81379        -4.05487
H         24.25137        22.87273        -4.35350
O         12.50325        39.06667         2.20070
H         12.51221        39.94708         2.63296
O         13.41613        33.39404        -2.64316
H         12.80557        32.80997        -3.14904
O         18.94709        39.65530         1.31963
H         18.64334        40.33990         1.96287
H          5.38666        30.92658         2.18889
H          5.23823        33.36569         1.94539
H          7.94138        26.76821         1.77990
H          6.79663        28.87324         2.21773
H          6.65790        35.42870         2.04194
H          7.74880        37.61163         1.63642
H         10.14469        22.46155         0.45360
H          9.01078        24.58645         1.08188
H          8.75383        39.82127         1.05602
H          9.94162        41.98925         0.87555
H         12.42087        18.26623        -0.99507
H         11.32911        20.33859        -0.19017
H         11.19041        44.13490         0.96025
H         12.37523        46.23352         1.01263
H         14.80958        14.31302         0.21031
H         13.59706        16.21784        -1.01792
H         13.99876        48.06321         2.02459
H         14.84159        50.58852         1.30838
H         17.09931        10.68617         2.63820
H         15.93588        12.44590         1.28170
H         16.12234        52.72579         1.46477
H         17.42404        54.83489         1.58819
H         19.49504         6.80063         4.44042
H         18.31219         8.73504         3.55666
H         18.73558        56.92320         1.60518
H         20.04187        58.98266         1.45133
H         22.82453         3.64198         5.82464
H         20.69246         4.79004         5.24263
H         23.55424        62.23100         1.22728
H         21.35734        61.05937         1.23142
H         24.98794         4.87069         5.73178
H         26.25635         6.93798         5.26033
H         26.82097        58.84195         2.14269
H         25.66026        60.97078         1.65212
H         27.52635         8.98334         4.73725
H         28.82531        10.80543         3.65561
H         29.21185        54.64975         2.30517
H         27.97213        56.75589         2.33734
H         30.12740        12.66755         2.75166
H         31.10400        14.34471         0.88078
H         31.85739        50.32561         0.75185
H         30.05096        52.70272         0.91670
H         33.05651        16.68528         0.89984
H         34.06141        18.75075         0.68659
H         33.68567        46.05446         2.15055
H         32.82621        48.15644         0.39665
H         35.26885        20.76695         0.25576
H         36.50956        22.92665        -0.03889
H         34.46784        40.85215         3.76036
H         34.46722        43.70418         2.88564
H         37.72537        24.95823        -0.30268
H         38.97069        27.04250        -0.39782
H         38.59231        37.84012         1.35492
H         37.11161        39.73934         2.22289
H         40.08635        29.10574         0.11356
H         41.39688        31.36430         0.13644
H         41.34816        33.84163         0.18011
H         39.96420        35.85443         0.80548
