         762
 CSIRO Nanostructure Databank - Neutral Graphene Oxide Data Set
C         22.86085        24.49326         2.18597
C         21.68415        25.23749         2.13337
C         22.88033        27.14393         1.20710
C         21.68484        26.54560         1.64896
C         22.87875        28.48054         0.58826
C         21.73252        29.19132         0.31683
C         22.93538        31.23670        -0.36402
C         21.76901        30.54766        -0.13728
C         22.95469        32.71482        -0.54423
C         21.70605        33.42777        -0.91687
C         22.93714        35.53856        -1.40298
C         21.69715        34.74358        -1.17824
C         22.85337        36.99511        -1.06639
C         21.87909        37.51054        -0.18724
C         23.08087        39.64192        -0.02326
C         21.93630        38.84457         0.21296
C         23.14334        41.05209         0.35491
C         21.88269        41.76256         0.51224
C         23.05287        43.90006         0.83760
C         21.82939        43.10383         0.64550
C         23.06534        45.41120         0.56633
C         21.89423        46.02692        -0.05361
C         23.19686        47.93345        -0.76388
C         22.04146        47.18143        -0.83009
C         25.38086        22.90354         2.27424
C         25.35144        24.30524         1.87747
C         24.08673        25.05495         1.77453
C         25.35084        27.01293         0.85371
C         24.08263        26.39158         1.29768
C         25.40928        28.52636         0.81167
C         24.16228        29.07296         0.15724
C         25.52233        31.23810        -0.32272
C         24.21538        30.50601        -0.33760
C         25.52578        32.58367        -0.69735
C         24.27702        33.39404        -0.79764
C         25.58457        35.51950        -1.29087
C         24.28398        34.79397        -1.40101
C         25.76763        36.81607        -1.70208
C         23.88952        37.87620        -1.41643
C         25.54235        39.63003        -0.55721
C         24.16490        39.07862        -0.74267
C         25.61037        41.01009         0.09672
C         24.34315        41.73704         0.37889
C         25.65597        43.97394         0.72397
C         24.37238        43.16859         0.80787
C         25.57660        45.44119         0.44170
C         24.38052        46.09092         0.37793
C         25.51867        48.37226         0.10339
C         24.22876        47.60225         0.28832
C         25.48171        49.68258        -0.26560
C         27.82846        22.74516         1.93987
C         26.52180        22.16806         2.30934
C         27.83992        24.22998         1.73538
C         26.55541        24.94899         1.68550
C         27.87839        27.12018         1.29884
C         26.64287        26.30371         1.11553
C         27.87700        28.45478         0.95091
C         26.71643        29.03083         0.15945
C         27.98260        31.21683         0.13307
C         26.72732        30.54099         0.02630
C         28.08588        32.57233        -0.47098
C         26.81591        33.26399        -0.90094
C         28.07115        35.53055        -0.77042
C         26.84147        34.73939        -1.12632
C         28.22573        36.88771        -1.43355
C         26.91545        37.63924        -1.37767
C         28.06686        39.72893        -0.93687
C         26.82050        38.98318        -1.05619
C         28.01507        41.21204        -0.80282
C         26.90357        41.79640         0.03481
C         28.20279        44.08956         0.14585
C         26.95564        43.25596         0.41354
C         28.12707        45.56073         0.04749
C         26.86207        46.21984         0.44418
C         28.12049        48.50904         0.23781
C         26.81067        47.72572         0.43831
C         27.91857        49.94557        -0.22516
C         26.67094        50.47321        -0.40364
C         30.27780        20.09803         1.06481
C         29.15173        20.65325         1.54188
C         30.41279        22.78484         2.21922
C         29.12398        21.99897         2.16252
C         30.36315        24.29449         2.28684
C         29.04860        25.03762         2.08951
C         30.26446        27.18617         2.01873
C         29.06892        26.48556         1.81190
C         30.24548        28.66645         1.97375
C         28.97918        29.32073         1.37181
C         30.25150        31.51492         1.27780
C         29.08829        30.66307         0.78142
C         30.52154        32.71870         0.40071
C         29.33689        33.36101        -0.26289
C         30.60187        35.59596        -0.22877
C         29.31023        34.85280        -0.30666
C         30.56993        37.02826        -0.48394
C         29.39872        37.65321        -0.89901
C         30.58168        39.80112        -1.11061
C         29.29961        39.08279        -0.96921
C         30.56599        41.29107        -1.26761
C         29.26817        42.00858        -1.00927
C         30.50684        44.22157        -0.96496
C         29.40454        43.39386        -0.43727
C         30.42444        45.58363        -0.92863
C         29.22418        46.31307        -0.46376
C         30.32783        48.53746        -0.98867
C         29.15970        47.73092        -0.56851
C         30.37222        50.02165        -0.72034
C         29.11849        50.74653        -0.37676
C         30.38948        52.80498        -0.82716
C         29.16801        52.11474        -0.49959
C         32.73184        18.94081        -0.26616
C         32.61117        20.37060         0.09227
C         31.60047        20.76455         1.13622
C         32.82414        23.05508         1.33106
C         31.68300        22.16324         1.69747
C         32.82325        24.41400         1.69707
C         31.58408        25.07693         2.05133
C         32.77573        27.20856         2.30402
C         31.51127        26.46718         2.09683
C         32.75305        28.73101         2.31563
C         31.51440        29.44181         1.93109
C         32.75961        31.56992         1.72052
C         31.54538        30.77476         1.57672
C         32.84267        32.93900         1.44744
C         31.74240        33.54378         0.64454
C         32.83693        35.83276         0.79007
C         31.70187        34.99662         0.33969
C         32.97036        37.18518         0.24213
C         31.79437        37.80625        -0.31455
C         33.12809        39.86596        -0.86886
C         31.82105        39.13923        -0.68696
C         33.01056        41.39049        -0.79339
C         31.82440        42.03931        -1.02313
C         33.01264        44.25213        -1.07582
C         31.75915        43.49817        -1.44776
C         32.94586        45.61716        -1.10112
C         31.65522        46.33464        -1.30424
C         32.86268        48.60048        -0.99072
C         31.62592        47.83386        -1.24653
C         32.87687        49.90044        -0.57024
C         31.64811        50.74817        -0.29651
C         32.83796        52.98656        -1.17358
C         31.62858        52.21113        -0.82504
C         32.85253        54.17418        -1.99120
C         34.89928        19.31092        -1.40760
C         33.76656        18.46246        -0.97929
C         34.97975        20.72660        -0.89921
C         33.79297        21.27719        -0.15431
C         35.14807        23.24887         0.57068
C         33.95775        22.52300         0.64427
C         35.22693        24.55785         1.13058
C         34.03231        25.18214         1.58769
C         35.26039        27.28158         1.97639
C         34.05218        26.55471         1.96858
C         35.25573        28.73151         2.19982
C         34.03053        29.43097         2.21831
C         35.22165        31.68379         2.45712
C         33.94502        30.90309         2.29575
C         35.26796        33.08322         1.98199
C         34.06676        33.68880         1.60304
C         35.33106        35.91560         1.40754
C         34.05820        35.16024         1.42056
C         35.31350        37.26657         1.03018
C         34.16200        37.91202         0.43193
C         35.44554        40.00561         0.07197
C         34.25551        39.27439        -0.03790
C         35.51952        41.37107        -0.51814
C         34.26145        42.13916        -0.73897
C         35.51565        44.30621        -0.77260
C         34.25497        43.51977        -0.85550
C         35.42201        45.76900        -0.50259
C         34.12676        46.43582        -0.77109
C         35.45152        48.60568        -1.09226
C         34.14580        47.87362        -1.15349
C         35.35516        50.02899        -0.71168
C         34.15714        50.49336        -0.26843
C         35.35180        53.08914        -1.18297
C         34.08477        52.62743        -0.68259
C         35.31859        54.38262        -1.83387
C         34.01863        54.87957        -2.20447
C         37.20036        17.07395        -3.39954
C         36.09222        17.51024        -2.75648
C         37.46875        19.35427        -1.66608
C         36.16986        18.59650        -1.76846
C         37.44719        20.76463        -1.17885
C         36.31172        21.37599        -0.73450
C         37.64205        23.12907         0.53044
C         36.34598        22.82001        -0.25649
C         37.72232        24.60991         0.88739
C         36.47236        25.27771         1.19107
C         37.77285        27.27103         1.90109
C         36.47718        26.60453         1.66209
C         37.77078        28.76591         2.23124
C         36.47583        29.45174         2.25485
C         37.78597        31.63097         2.65287
C         36.48281        30.88576         2.58308
C         37.72272        33.14385         2.54690
C         36.50111        33.82052         2.03812
C         37.82046        35.90805         1.77702
C         36.54360        35.21210         1.79089
C         37.82172        37.38918         1.65620
C         36.50774        38.10272         1.26139
C         37.83049        40.17373         0.83800
C         36.60758        39.44307         0.67790
C         37.87274        41.53913         0.50927
C         36.81721        42.14274        -0.31092
C         37.93007        44.42561         0.14977
C         36.82050        43.63433        -0.44982
C         37.81003        45.89838         0.21817
C         36.68401        46.55773        -0.45928
C         37.89262        48.69905        -0.37839
C         36.69444        47.91413        -0.64043
C         37.88445        50.12655        -0.79705
C         36.55941        50.85592        -0.89725
C         37.80626        52.88896        -1.52813
C         36.52928        52.33367        -1.04420
C         37.81650        54.34518        -1.97918
C         36.53287        55.07339        -2.06085
C         37.81059        57.10562        -2.49968
C         36.60405        56.45287        -2.39952
C         39.59306        15.94045        -4.63658
C         39.64494        17.17643        -3.94151
C         38.49632        17.70680        -3.24401
C         39.86369        19.56582        -2.38791
C         38.61035        18.88064        -2.48219
C         39.98059        20.76424        -1.57641
C         38.75125        21.47270        -1.14654
C         40.20022        23.08800         0.27635
C         38.86364        22.68695        -0.26644
C         40.23759        24.51661         0.87435
C         38.94476        25.26478         0.98221
C         40.17929        27.41564         1.27910
C         39.00789        26.66529         1.35310
C         40.23050        28.81427         1.64319
C         39.01898        29.54821         2.02512
C         40.35572        31.57627         2.57032
C         39.02537        30.91050         2.25914
C         40.38881        33.16629         2.68327
C         39.05244        33.89115         2.46931
C         40.30545        35.92723         1.42713
C         39.02920        35.24580         1.89824
C         40.34475        37.40443         1.84364
C         39.07292        38.11356         1.45822
C         40.33368        40.17007         1.08846
C         39.07201        39.48779         1.21695
C         40.33785        41.62560         1.11852
C         39.01152        42.35793         0.88690
C         40.30874        44.54689         0.84696
C         39.07408        43.80714         0.57842
C         40.26695        46.01875         1.00109
C         38.99440        46.73769         0.64590
C         40.26769        48.94154         0.32838
C         39.03110        48.13293         0.14833
C         40.31020        50.30130        -0.28267
C         39.10935        50.93930        -0.63709
C         40.28333        53.02691        -1.08418
C         39.08213        52.28627        -1.05596
C         40.29222        54.44909        -1.46899
C         39.08518        55.09626        -1.88286
C         40.30990        57.19513        -2.25930
C         39.06772        56.46683        -2.20895
C         40.36540        58.53840        -2.71299
C         41.92908        16.13875        -5.24571
C         40.71541        15.42695        -5.25949
C         42.03041        17.35460        -4.58017
C         40.88638        17.88085        -3.88876
C         42.30926        19.61639        -2.79320
C         40.97716        19.05437        -3.07651
C         42.45119        20.76139        -1.83231
C         41.20532        21.35620        -1.30618
C         42.67455        22.75282        -0.00697
C         41.37097        22.44290        -0.36888
C         42.72111        24.74866         0.74025
C         41.47591        25.31820         0.78529
C         42.69980        27.49233         0.88660
C         41.38179        26.81010         0.56494
C         42.68942        28.84765         1.21821
C         41.44843        29.50680         1.53664
C         42.76486        31.69885         1.68363
C         41.45365        30.97758         1.70853
C         42.80632        33.13194         2.04556
C         41.57818        33.84136         2.02763
C         42.82310        35.93252         1.74627
C         41.59201        35.23146         1.81625
C         42.85395        37.38082         1.50605
C         41.60499        38.09332         1.35834
C         42.83881        40.18444         0.79505
C         41.56982        39.45276         1.04603
C         42.83814        41.67921         0.66613
C         41.54903        42.41756         0.75109
C         42.79776        44.61009         0.79478
C         41.53156        43.89592         0.90054
C         42.79866        46.00978         0.76195
C         41.58162        46.79303         1.02528
C         42.87193        49.12556         0.63936
C         41.55382        48.30463         0.79735
C         42.80334        50.13728        -0.52357
C         41.53134        50.97681        -0.48234
C         42.76496        53.08354        -1.03604
C         41.49794        52.33560        -0.83490
C         42.67028        54.55508        -0.68022
C         41.48290        55.19381        -1.39390
C         42.74817        57.27958        -1.91511
C         41.51825        56.54904        -1.84493
C         42.75642        58.59358        -2.36492
C         41.56364        59.22326        -2.76685
C         44.55663        17.62268        -5.14230
C         43.27328        18.17278        -4.67760
C         44.69776        20.02136        -3.56876
C         43.38656        19.39214        -3.79156
C         44.71744        21.37458        -2.91202
C         43.69325        21.57499        -1.82645
C         45.09350        23.33127        -0.66596
C         43.81517        22.55128        -0.87555
C         45.10305        24.75166        -0.16620
C         43.93913        25.41738         0.31714
C         45.18818        27.46591         0.70620
C         43.94423        26.81068         0.60633
C         45.22769        28.75099         1.48694
C         43.95568        29.56076         1.37337
C         45.26849        31.55902         2.04059
C         43.99857        30.90149         1.64003
C         45.28136        33.06761         2.23729
C         44.02036        33.82421         2.07492
C         45.34510        35.91555         1.88346
C         44.03317        35.22874         1.96763
C         45.34793        37.38851         1.66396
C         44.05517        38.07752         1.52481
C         45.28062        40.35045         1.68108
C         44.12384        39.50509         1.15602
C         45.28047        41.77105         1.14597
C         44.09824        42.43295         0.85720
C         45.29426        44.55212         0.57848
C         44.05500        43.86863         0.73170
C         45.25446        45.96971         0.15788
C         44.06368        46.75291         0.60034
C         45.36211        48.89376        -0.03285
C         44.12431        48.24875         0.50727
C         45.30596        50.30767        -0.35795
C         44.09226        50.93697        -0.56623
C         45.31346        53.16145        -0.73973
C         44.06870        52.36881        -0.91489
C         45.28277        54.53669        -0.76831
C         43.99942        55.28840        -0.83043
C         45.30927        57.10804        -2.02649
C         44.01880        56.65966        -1.44925
C         45.71278        18.31759        -4.99808
C         46.98485        20.41723        -4.34906
C         45.78471        19.59043        -4.29682
C         47.14819        21.52091        -3.42554
C         46.09926        21.84179        -2.54841
C         47.48401        23.73783        -1.62893
C         46.27474        22.89340        -1.53909
C         47.53234        24.90540        -0.81966
C         46.31834        25.48772        -0.24413
C         47.61486        27.56665         0.34077
C         46.37033        26.82652         0.27949
C         47.66711        28.86713         0.83242
C         46.48688        29.55348         1.27442
C         47.78093        31.58817         1.83034
C         46.53334        30.87804         1.68346
C         47.78159        32.99981         2.27158
C         46.55142        33.77265         2.16483
C         47.85821        35.94617         2.13711
C         46.55894        35.24266         2.50454
C         47.87320        37.44179         2.11394
C         46.57807        38.19037         1.96145
C         47.80939        40.27530         1.42110
C         46.60815        39.62208         1.56601
C         47.84179        41.76137         1.41945
C         46.52560        42.53915         1.28840
C         47.77751        44.63172         0.56771
C         46.53596        43.92706         0.77900
C         47.78782        45.96389         0.18002
C         46.53869        46.70364        -0.07321
C         47.81003        48.89119        -0.33106
C         46.55451        48.19476        -0.11384
C         47.79856        50.28234        -0.49890
C         46.56323        51.02764        -0.55401
C         47.78500        53.16181        -1.04987
C         46.55219        52.41637        -0.71890
C         47.82655        54.61886        -0.86100
C         46.53945        55.39434        -0.66701
C         46.46641        56.52551        -1.68323
C         48.97692        21.10274        -5.52743
C         47.92845        20.19963        -5.35536
C         49.14598        22.15500        -4.61976
C         48.34660        22.33010        -3.47008
C         49.85634        23.99162        -2.23221
C         48.57179        23.38264        -2.47547
C         49.95379        24.98653        -1.22183
C         48.77806        25.53432        -0.65203
C         50.06906        27.26816         0.71335
C         48.87635        26.98053        -0.24255
C         50.23924        28.80306         0.88172
C         48.95534        29.60377         0.93199
C         50.24376        31.65025         1.58355
C         48.97695        30.95610         1.53614
C         50.31013        33.04773         1.78699
C         49.09884        33.77738         2.21465
C         50.31167        35.98421         1.93916
C         49.02373        35.25470         2.04364
C         50.27235        37.41202         1.55195
C         49.11303        38.13230         1.66370
C         50.25223        40.24835         1.02742
C         49.07275        39.55603         1.34322
C         50.23426        41.69923         0.86664
C         49.08795        42.44694         1.03537
C         50.35769        44.60972         0.54842
C         49.05800        43.97603         1.08845
C         50.30517        45.88774        -0.23220
C         49.01985        46.65591        -0.27721
C         50.28296        48.78374        -0.49385
C         49.06188        48.14216        -0.38023
C         50.37200        50.25430        -0.49129
C         49.07665        51.02409        -0.53103
C         50.36003        53.20205        -0.94606
C         49.10275        52.42244        -1.05816
C         50.28836        54.56301        -0.87017
C         49.02959        55.25832        -0.78826
C         52.44047        22.80131        -4.83535
C         51.20325        23.12506        -4.18032
C         52.38354        23.78544        -2.15575
C         51.10612        23.60424        -2.89207
C         52.44986        24.87727        -1.16776
C         51.24790        25.50400        -0.76712
C         52.50879        26.68763         0.91740
C         51.30585        26.51563         0.24053
C         52.59881        28.81120         1.81830
C         51.43689        29.47417         1.45500
C         52.70933        31.58935         1.45307
C         51.45805        30.90905         1.45849
C         52.72520        33.01479         1.37733
C         51.54341        33.73144         1.59989
C         52.78210        35.95298         1.30970
C         51.58142        35.21008         1.76334
C         52.77476        37.28574         1.08776
C         51.46267        38.01524         0.85898
C         52.73035        40.14266         0.80015
C         51.51818        39.52310         0.97346
C         52.76759        41.54281         0.34443
C         51.49282        42.33157         0.38632
C         52.84722        44.44855        -0.19323
C         51.61423        43.81522         0.35772
C         52.88862        45.84168        -0.27773
C         51.61137        46.57830        -0.50878
C         52.85152        48.81613        -0.40965
C         51.57397        48.06820        -0.65793
C         52.91479        50.24662        -0.80058
C         51.62205        50.92490        -1.00371
C         52.94143        53.09142        -1.02796
C         51.62968        52.44698        -1.14633
C         53.63587        22.90733        -4.19691
C         54.98765        23.89943        -2.28767
C         53.70126        23.34354        -2.79779
C         54.97706        24.88970        -1.27080
C         53.71666        25.32679        -0.70170
C         54.99251        26.69396         0.90583
C         53.74404        26.18902         0.42767
C         55.10206        28.74294         1.89238
C         53.86653        29.46969         1.84053
C         55.23419        31.47890         1.32636
C         53.91796        30.84150         1.53052
C         55.30675        32.96402         1.12708
C         54.00073        33.71128         1.06114
C         55.30834        35.89690         1.26119
C         54.02751        35.19206         1.05375
C         55.33271        37.26572         1.10833
C         54.05999        37.95718         0.62516
C         55.29951        40.18102         1.14397
C         54.01979        39.42210         1.01494
C         55.26456        41.71358         1.04605
C         54.09896        42.23254         0.19341
C         55.37153        44.47825         0.00420
C         54.12189        43.71314        -0.15600
C         55.36738        45.86979        -0.12507
C         54.11887        46.54478        -0.31083
C         55.39715        48.69901        -0.67111
C         54.11541        48.02531        -0.30382
C         55.40759        50.17188        -0.94742
C         54.10973        50.92473        -0.92380
C         54.09335        52.36727        -1.01473
C         57.40855        23.80971        -2.16087
C         56.20890        23.39460        -2.74517
C         57.43828        24.84728        -1.22097
C         56.20919        25.47241        -0.83381
C         57.23196        27.51590         0.26034
C         56.16117        26.56300         0.14199
C         57.46156        28.58456         1.14625
C         56.34688        29.32956         1.68649
C         57.71314        31.42114         1.76152
C         56.47697        30.77351         1.67939
C         57.73760        32.91226         1.79242
C         56.55670        33.63051         1.54398
C         57.79341        35.88003         1.69173
C         56.48062        35.10774         1.69935
C         57.78376        37.30689         1.33622
C         56.57610        38.01096         1.18818
C         57.79854        40.15163         1.12424
C         56.60553        39.45666         1.04181
C         57.85058        41.63655         1.07489
C         56.59445        42.29126         0.57337
C         57.91239        44.47446         0.26052
C         56.63874        43.73924         0.16185
C         57.90835        45.97698         0.40663
C         56.61434        46.63893        -0.05340
C         57.90273        48.76927         0.00898
C         56.63324        47.98558        -0.27371
C         57.83738        50.21594        -0.42894
C         56.71300        50.86271        -0.77699
C         59.58758        24.18536        -0.01410
C         58.70614        25.15422        -0.51885
C         59.93275        26.91667         0.75554
C         58.99278        26.49015        -0.19777
C         59.95374        28.31919         1.21916
C         58.78706        29.16011         1.29757
C         60.11972        30.85192         2.38694
C         58.88305        30.50518         1.81070
C         60.20859        33.17599         2.41239
C         58.97976        33.70665         1.95849
C         60.25485        35.80407         1.48645
C         59.03199        35.09988         1.64109
C         60.25149        37.24315         1.21830
C         59.04518        37.96547         1.25109
C         60.42790        40.16107         0.94661
C         59.06438        39.42989         1.29102
C         60.38487        41.58586         0.52801
C         59.14478        42.36164         0.75697
C         60.33318        44.41937        -0.12947
C         59.09689        43.77541         0.27600
C         60.28889        45.84035        -0.50277
C         59.12659        46.60529        -0.24622
C         60.22239        48.59722        -1.10093
C         59.11109        47.98921        -0.50410
C         60.63322        24.58210         0.83263
C         60.78643        25.90726         1.25125
C         61.17973        28.79756         1.71397
C         61.25505        30.03500         2.33792
C         61.42859        33.85330         2.28893
C         61.46568        35.13335         1.75146
C         61.44071        37.91545         0.78541
C         61.48837        39.26027         0.52164
C         61.47671        42.24084         0.02027
C         61.46486        43.64115        -0.27441
C         61.39412        46.47797        -1.10395
C         61.34990        47.83366        -1.41625
O         53.44945        48.55861         0.91040
O         23.57012        35.06784        -2.64098
O         30.65200        40.46061        -2.46643
O         45.23832        32.09914         3.39594
O         27.28160        42.20956         1.37400
O         58.02385        48.83455         1.43332
O         27.93175        23.32208         0.57685
O         48.56571        33.30401         3.50034
O         49.50037        45.84890        -1.44149
O         60.24649        32.00271         3.16183
O         51.34426        44.54834         1.62553
O         29.23264        29.28771         2.83041
O         22.90095        44.85768         1.91809
O         52.52481        27.43853         2.10802
O         43.44680        52.69690        -2.25940
O         55.42428        49.18684        -2.05894
O         57.05262        35.60958         2.94368
O         51.63199        47.20413        -1.83736
O         42.89586        23.42937         1.19139
O         29.57322        24.74672         3.42428
O         58.17490        27.46470        -0.78916
O         24.25297        29.35079        -1.27172
O         44.39275        47.57934         1.79253
O         49.80582        29.59341        -0.27979
O         37.06081        18.36981        -0.63326
O         34.34066        31.46393         3.60522
O         44.03291        56.49801         0.02789
O         54.31156        42.60558        -1.16826
O         26.03434        26.33584        -0.23282
O         28.35093        35.47245         0.65124
O         51.17468        35.67264         3.10766
O         51.94563        41.73568        -0.86564
O         31.60478        47.11888        -2.53633
O         30.19248        49.54548        -2.08706
O         55.41308        32.07405        -0.03130
O         51.49516        51.54656        -2.31289
O         56.72607        42.59967        -0.82682
O         45.71818        46.17668        -1.20857
O         47.18313        38.00246         3.28526
O         47.18021        42.33397         2.60536
O         25.14326        43.50425         2.00677
O         42.10088        42.05217        -0.56025
O         55.04152        27.34672         2.14476
O         58.58462        42.28277         2.13747
O         23.65092        33.41641         0.55674
O         31.60559        32.64768        -0.55806
O         41.87688        31.61386         0.46590
O         28.25713        41.93725        -2.06512
O         32.60329        21.32336        -1.01911
O         45.60794        36.43884         0.53832
O         34.89565        48.18034        -2.37931
O         40.24096        23.30236         1.71253
O         53.02463        22.51587        -1.78897
O         32.70463        27.94301         3.56766
O         53.91711        34.45856        -0.22979
O         40.81022        33.49579         3.99134
O         42.95549        19.52899        -5.18996
O         32.13668        20.99357         2.47035
O         26.86302        47.01280         1.72394
O         24.76857        37.48009        -2.41991
O         37.91300        27.74070         3.27992
O         48.38706        52.64251        -2.30405
O         34.63329        20.43438        -2.30415
O         29.84654        22.15360         3.41040
O         29.09314        32.67825        -1.53176
O         25.75671        39.80502         0.90595
O         38.73336        22.85526        -1.69861
O         34.55860        46.16138         0.62479
O         43.73819        39.65437        -0.24748
O         49.84185        50.89412         0.72081
O         46.10613        22.45058        -0.10516
O         40.88458        46.43512         2.25753
O         38.25855        33.82679         3.70238
O         37.85491        53.23370        -2.95428
O         59.96139        39.95711         2.30625
O         37.17564        31.12332         3.87257
O         54.57398        39.70524         2.34576
O         36.52991        41.46018        -1.57271
O         36.96514        38.03799         2.65230
O         39.55837        42.13973         2.23478
O         36.50508        44.05627        -1.82379
O         26.97009        33.82717        -2.26345
O         33.01974        35.78697         2.25402
O         37.93457        46.43387         1.59918
O         37.27440        50.31432        -2.10443
O         34.13034        51.72844         0.39599
O         42.73002        19.36265        -1.40697
O         50.08521        23.11461        -5.01627
O         29.30135        43.57115         1.00569
O         40.68250        48.96379         1.74988
O         28.77778        48.63333         1.53047
H         28.40901        47.91623         2.10419
O         33.49651        39.62853        -2.27440
H         32.70776        39.86922        -2.81455
O         42.34649        54.56730         0.73527
H         42.56786        55.46606         1.06910
O         31.67471        43.47052        -2.89967
H         32.49191        43.05727        -3.24960
O         46.59885        55.97753         0.65880
H         45.73269        56.43175         0.80254
O         49.09185        27.55612        -1.56082
H         49.17773        28.53751        -1.47705
O         40.64076        31.07181         3.88967
H         40.70482        31.88789         4.47280
O         58.00926        46.22612         1.83777
H         58.05457        47.22826         1.94020
O         40.39256        37.41045         3.29668
H         40.20790        38.31730         3.61872
O         42.72104        49.33804        -1.73522
H         42.78936        49.94294        -2.50535
O         51.20497        37.80777        -0.57737
H         52.00291        38.13026        -1.06140
O         45.01890        40.48337         3.11095
H         45.75713        41.01748         3.48895
O         44.27861        22.31259        -3.98984
H         43.87793        21.78157        -4.71387
O         37.59468        22.36532         1.75045
H         38.42722        22.55068         2.24621
O         49.70168        26.75148         2.00836
H         50.50362        26.76013         2.57664
O         26.84114        28.54369        -1.19240
H         25.99011        28.73157        -1.65828
O         23.67247        48.01382         1.57477
H         24.27006        47.67092         2.27400
O         45.29489        28.31580         2.89191
H         45.27278        29.11820         3.45746
O         55.03720        42.24588         2.36753
H         54.82187        41.49292         2.96769
O         46.40495        35.30986         3.94467
H         47.12176        34.76683         4.34509
O         54.05582        37.92560        -0.83178
H         54.12385        36.98672        -1.11309
O         43.04890        49.91289         1.82039
H         43.17046        49.29719         2.57546
O         29.78215        32.05572         2.54734
H         29.57020        31.28485         3.12723
O         31.55736        50.84865         1.14794
H         32.35084        51.34221         1.45477
O         28.51145        36.59940        -2.83085
H         28.58834        37.44830        -3.31480
O         36.32620        23.67962        -1.42248
H         35.69958        23.30327        -2.07515
O         41.15585        27.03262        -0.87103
H         41.16783        28.00072        -1.02925
O         49.00457        44.31158         2.49957
H         49.90755        44.18381         2.87080
O         40.23727        35.87847        -0.02919
H         41.09135        36.20291        -0.38751
O         25.42604        29.01250         2.17582
H         24.61519        28.70361         2.63230
H         22.81881        23.46432         2.56588
H         20.74084        24.78495         2.46831
H         20.73716        27.09815         1.60141
H         20.74563        28.76730         0.54673
H         20.80521        31.07173        -0.19448
H         20.75572        32.87693        -0.88795
H         20.73949        35.24778        -1.37998
H         21.04885        36.87649         0.15320
H         21.11695        39.24223         0.82594
H         20.94658        41.19361         0.44097
H         20.85996        43.60971         0.74973
H         20.91845        45.52929         0.01596
H         23.30731        48.82648        -1.39387
H         21.20961        47.51018        -1.47064
H         24.43966        22.41585         2.56298
H         24.51839        50.17052        -0.46770
H         26.49312        21.13173         2.67662
H         26.55716        51.52620        -0.69638
H         30.21758        19.12896         0.54854
H         28.18989        20.13646         1.40526
H         30.30838        53.87623        -1.06592
H         28.25758        52.71925        -0.37655
H         31.97046        18.24326         0.11100
H         31.90686        54.56431        -2.39349
H         33.84188        17.38155        -1.16909
H         33.96296        55.82536        -2.76172
H         37.09318        16.25994        -4.12837
H         35.10685        17.08790        -3.00064
H         37.79935        58.17319        -2.75430
H         35.67482        57.01772        -2.55968
H         38.66062        15.36313        -4.67483
H         39.45067        59.04822        -3.04116
H         42.79357        15.72626        -5.78333
H         40.65900        14.46510        -5.78689
H         43.69729        59.15922        -2.40025
H         41.59081        60.26204        -3.12230
H         44.58240        16.61753        -5.58669
H         45.29855        57.91623        -2.77237
H         46.64643        17.87321        -5.37088
H         47.40763        56.88314        -2.12722
H         49.65068        21.02493        -6.38981
H         47.80087        19.37864        -6.07245
H         51.20651        55.16607        -0.83462
H         49.05498        56.34535        -0.62753
H         52.39754        22.52054        -5.89640
H         52.99084        54.18676        -0.94976
H         54.56990        22.78013        -4.76262
H         55.05041        52.90494        -0.97699
H         58.34849        23.32037        -2.45129
H         56.22860        22.60410        -3.50778
H         58.75881        50.80257        -0.29483
H         56.76276        51.94186        -0.98754
H         59.43448        23.12058        -0.23853
H         60.21663        49.67284        -1.32532
H         61.31072        23.81635         1.23493
H         61.55577        26.14615         1.99857
H         62.07651        28.16676         1.65071
H         62.18772        30.38046         2.80110
H         62.34630        33.36747         2.64424
H         62.42701        35.65462         1.65797
H         62.31326        37.30480         0.51259
H         62.34272        39.66641        -0.03832
H         62.41772        41.69572        -0.14178
H         62.40058        44.08325        -0.64112
H         62.30557        45.90925        -1.33297
H         62.21749        48.31205        -1.89180
