         349
 CSIRO Nanostructure Databank - Neutral Graphene Oxide Data Set
C          1.25605         1.99174         0.63703
C          1.23450         3.37185         0.86054
C          2.45462         1.33036         0.38403
C          2.42195         4.13097         0.83987
C          1.26947         6.30337         1.32168
C          1.25335         7.73369         1.40456
C          2.41739         5.56961         1.09730
C          2.37910         8.49749         1.23903
C          1.11630        10.70934         0.86117
C          1.10562        11.94285         0.34511
C          2.37007        10.03062         1.35199
C          2.34391        12.70222        -0.06162
C          1.23545        14.91030         0.69741
C          1.25375        16.32983         0.82493
C          2.32507        14.19662         0.25844
C          2.41966        17.07987         0.57926
C          2.46589        18.52381         0.67111
C          3.67448         2.04354         0.35847
C          3.65831         3.45996         0.59596
C          4.89713         1.36236         0.05634
C          4.89209         4.19032         0.50550
C          3.70698         6.28318         1.09018
C          3.67902         7.79719         1.18782
C          4.91950         5.58008         0.59958
C          4.80434         8.53755         0.49920
C          3.62294        10.70922         0.82201
C          3.62857        12.01915         0.41354
C          4.91884         9.98297         1.08420
C          4.87296        12.76339         0.38738
C          3.58008        14.93941        -0.12079
C          3.61368        16.40182         0.23511
C          4.82259        14.22350         0.37364
C          4.82298        17.11349         0.02523
C          3.60388        19.22704         0.38342
C          4.83617        18.56544         0.03357
C          6.13499         2.00938         0.06697
C          6.19292         3.42886         0.57126
C          7.35368         1.35303        -0.18816
C          7.38581         4.19006         0.06180
C          6.13014         6.30543         0.31769
C          6.17029         7.79732         0.61887
C          7.30789         5.61738         0.00185
C          7.23527         8.60196        -0.16104
C          6.17439        10.70579         0.63510
C          6.13940        12.15415         0.54837
C          7.33781         9.99872         0.42685
C          7.34601        12.89261         0.30970
C          6.12016        15.01273         0.17315
C          6.02275        16.41665        -0.20286
C          7.36512        14.26273        -0.01914
C          7.20733        17.11080        -0.70670
C          6.02526        19.25249        -0.21139
C          7.24929        18.58539        -0.53715
C          8.59740         2.04908        -0.19197
C          8.58608         3.50579        -0.13267
C          9.81764         1.37193        -0.32194
C          9.84183         4.21556        -0.28546
C          8.55594         6.33963        -0.32777
C          8.55246         7.83193        -0.30872
C          9.85436         5.62701        -0.28550
C          9.85598         8.48112         0.00657
C          8.62643        10.69309         0.51587
C          8.63749        12.20430         0.41822
C          9.90465         9.95105         0.29706
C          9.86849        12.86213        -0.05749
C          8.55931        14.92859        -0.41218
C          8.49603        16.33315        -0.89150
C          9.81014        14.24537        -0.38843
C          9.79115        17.12427        -1.14041
C          8.47670        19.24001        -0.53791
C          9.73616        18.56949        -0.65987
C         11.06433         2.05263        -0.41615
C         11.06246         3.50693        -0.44050
C         12.28873         1.37063        -0.43476
C         12.26335         4.22233        -0.65727
C         11.06015         6.34113        -0.49205
C         11.08223         7.79492        -0.43633
C         12.26430         5.61769        -0.69997
C         12.25844         8.52181        -0.48344
C         11.12155        10.69201        -0.06888
C         11.06939        12.12207        -0.19679
C         12.28935         9.96596        -0.35916
C         12.27807        12.81698        -0.54052
C         11.04447        14.96446        -0.58854
C         11.03319        16.40989        -0.66673
C         12.25785        14.25815        -0.60965
C         12.19083        17.13386        -0.47196
C         10.92777        19.25100        -0.47264
C         12.20729        18.58739        -0.46937
C         13.53673         2.05265        -0.54157
C         13.53226         3.48682        -1.01484
C         14.74144         1.41584        -0.30999
C         14.79275         4.25602        -0.66787
C         13.49603         6.36085        -1.17435
C         13.52777         7.77508        -0.62522
C         14.80064         5.65011        -0.86619
C         14.80503         8.53381        -0.72121
C         13.51832        10.68514        -0.63255
C         13.47470        12.10959        -0.72023
C         14.74155        10.00192        -0.80891
C         14.69093        12.85371        -1.20779
C         13.51217        14.97006        -0.59980
C         13.45746        16.41337        -0.25893
C         14.71074        14.30312        -0.76453
C         14.72431        17.21492        -0.28310
C         13.40789        19.30811        -0.42343
C         14.70135        18.69544        -0.41499
C         15.99830         2.12463        -0.22237
C         15.99650         3.58436        -0.38457
C         17.16304         1.46462         0.07600
C         17.21618         4.31329        -0.32546
C         16.01427         6.36598        -0.87330
C         16.01482         7.82096        -1.29852
C         17.23498         5.70455        -0.61410
C         17.29266         8.56000        -0.95526
C         15.98683        10.71055        -0.92105
C         15.97343        12.10221        -0.95730
C         17.23196         9.93615        -0.84475
C         17.22356        12.87396        -0.96191
C         15.97043        15.00276        -0.66760
C         15.95864        16.49598        -0.68841
C         17.17310        14.34279        -0.74948
C         17.21635        17.30039        -0.65690
C         15.90521        19.40521        -0.43391
C         17.20102        18.77100        -0.43918
C         18.41323         2.21263         0.45670
C         18.46517         3.60159        -0.14746
C         19.66870         1.40250         0.29027
C         19.65996         4.21739        -0.43922
C         18.50297         6.42971        -0.67803
C         18.53295         7.80615        -0.84469
C         19.75176         5.66647        -0.63364
C         19.85758         8.55321        -1.07012
C         18.45791        10.66181        -0.44477
C         18.49480        12.13976        -0.67442
C         19.76109         9.93789        -0.42926
C         19.61001        12.93237        -0.01846
C         18.42886        15.07001        -0.42857
C         18.46393        16.56497        -0.33088
C         19.73473        14.34331        -0.67996
C         19.72302        17.31752        -0.45394
C         18.42697        19.42345        -0.40577
C         19.70968        18.72904        -0.49320
C         20.86946         1.97605        -0.05922
C         20.87738         3.38270        -0.52493
C         22.11321         1.26401        -0.09114
C         22.21696         4.07917        -0.63280
C         20.97258         6.30779        -0.66932
C         21.15216         7.81097        -0.64649
C         22.29578         5.57407        -0.84482
C         22.03423         8.46174         0.48043
C         21.03837        10.73996        -0.44887
C         20.93571        12.17737         0.03857
C         22.17097         9.98362         0.25556
C         22.23499        12.90034        -0.12796
C         20.94939        15.12279        -0.11770
C         20.94884        16.56556        -0.63596
C         22.17685        14.33353        -0.53267
C         22.31955        17.33292        -0.57175
C         20.95369        19.42781        -0.48542
C         22.23837        18.81953        -0.37362
C         23.35392         1.93763        -0.13349
C         23.38102         3.35130        -0.17219
C         24.63115         1.24896        -0.06496
C         24.62437         4.03041         0.34145
C         23.25215         6.25207         0.13856
C         23.26601         7.78820        -0.20178
C         24.60141         5.56864         0.27786
C         24.62658         8.48481        -0.26999
C         23.48415        10.68293         0.04091
C         23.48316        12.12464        -0.34627
C         24.68065         9.88029        -0.26293
C         24.68827        12.79659        -0.54358
C         23.46299        15.05687        -0.76922
C         23.47337        16.46145        -0.32432
C         24.73575        14.26606        -0.76073
C         24.61673        16.88472         0.36699
C         23.39448        19.62794        -0.25219
C         24.64850        19.13909         0.26890
C         25.83122         1.92559        -0.20197
C         25.80951         3.42892        -0.44263
C         27.08979         1.26088        -0.16110
C         27.11235         4.13621        -0.13307
C         25.86848         6.30584         0.06928
C         25.87057         7.75477        -0.23938
C         27.13052         5.53778        -0.03793
C         27.12006         8.39274        -0.13609
C         25.90526        10.62712        -0.53781
C         25.92942        12.10028        -0.41357
C         27.24227         9.83077        -0.39107
C         27.15269        12.79651        -0.18300
C         26.01189        14.99710        -0.44591
C         25.89373        16.36194         0.13409
C         27.19894        14.19259        -0.10310
C         27.10461        17.19100         0.24760
C         25.96803        19.47215         0.11405
C         27.04832        18.63291         0.81350
C         28.30126         1.95833        -0.11435
C         28.31797         3.40525        -0.06318
C         29.55545         1.26253        -0.03838
C         29.55106         4.09882         0.12664
C         28.34456         6.24635         0.12637
C         28.33977         7.68428         0.15517
C         29.56827         5.52221         0.22927
C         29.54881         8.38653         0.40698
C         28.41320        10.55165         0.10728
C         28.31690        12.00801         0.32479
C         29.55135         9.83748         0.50579
C         29.54060        12.72184         0.82008
C         28.46279        14.93567         0.08742
C         28.44454        16.43568         0.23810
C         29.67965        14.18991         0.54038
C         29.62107        17.09270         0.82729
C         28.41423        19.26326         0.72871
C         29.59281        18.53238         0.91207
C         30.73849         1.93611         0.11571
C         30.77192         3.36687         0.22086
C         31.97615         4.07467         0.42260
C         30.79254         6.21584         0.46634
C         30.76559         7.65820         0.62389
C         31.98422         5.45843         0.55077
C         31.92136         8.37150         1.00016
C         30.75980        10.52353         0.92334
C         30.79611        11.96532         1.03632
C         31.91133         9.75316         1.16272
C         31.90508        12.70505         1.42087
C         30.81652        14.90585         1.16393
C         30.77926        16.36901         1.22105
C         31.88047        14.12612         1.57265
C         31.91942        17.09760         1.62462
C         30.80452        19.21642         1.25466
C         31.93131        18.50182         1.61440
O         25.27894         6.11392         1.46885
O          8.76490        11.52153         1.71919
O         28.49888        12.35810         1.78258
O         26.69864        10.20356        -1.69194
O         21.66931        12.59839         1.20990
O          4.02274         7.01332         2.36771
O         16.57457        16.96650        -1.93916
O         25.59752        14.75240        -1.84205
O         14.17855        16.74657         0.99228
O         24.44756        18.03408         1.15174
O         22.60939        14.62245        -1.87575
O         21.67515        16.93428        -1.82248
O         18.34889        15.73361         0.89959
O         22.42726         8.00691        -1.48719
O          8.55186         7.14693        -1.60263
O         21.56404         3.47151        -1.82327
O         29.50556        14.51121        -0.88241
O         18.17032        12.44565        -2.06077
O          5.48717        14.81625         1.51232
O         19.02659        10.11787         0.80439
O         14.37638         7.95507         0.56054
O         27.91918        17.10140        -0.95825
O          7.58848        16.54121        -2.03659
O         10.02802         8.95456         1.38317
O         22.85855        10.52357         1.41042
O          9.96876        17.21343        -2.58542
H          9.06249        17.21738        -2.97648
O         19.16123        13.11293         1.33502
H         19.96590        13.23351         1.89357
O          4.33955         8.60918        -0.85726
H          5.07165         8.96199        -1.42304
O         26.77284        18.54945         2.23660
H         25.80584        18.37524         2.33382
O         22.79231         5.73527        -2.18838
H         22.39304         5.01641        -2.72855
O          6.43950         3.29943         2.02866
H          5.68316         2.80035         2.40555
O          5.05274         9.89133         2.53129
H          5.89098         9.39690         2.71461
O          3.71175        14.89390        -1.60209
H          3.01430        15.47545        -1.97460
O         21.67843         8.23502         1.81742
H         21.97937         9.00814         2.34487
O         15.87307         7.86851        -2.74555
H         16.66714         7.45629        -3.14458
O         13.53118         3.43987        -2.49298
H         14.26499         2.84845        -2.76645
O         20.92058        15.19819         1.31470
H         20.00078        15.47153         1.57314
O         21.45121        10.89128        -1.83176
H         21.10067        10.13270        -2.36458
O         24.76617         3.64007         1.72284
H         25.20806         4.39374         2.18316
O         13.36576         6.44993        -2.61888
H         13.33573         5.52432        -2.95654
O         19.98642        14.27098        -2.07953
H         19.29637        13.70861        -2.51003
O         25.52963         3.65979        -1.84905
H         26.25270         3.25876        -2.37488
O          2.38822        10.27478         2.79432
H          3.30128        10.06214         3.11038
O         19.94464         8.77747        -2.50994
H         20.46371         8.04096        -2.89911
O         18.29594         2.44289         1.91532
H         17.47061         2.95252         2.06418
O         22.62782         6.01408         1.41391
H         23.26633         6.27012         2.11536
O         14.56398        12.92116        -2.68207
H         14.64350        12.00664        -3.02858
O          2.36303        12.59207        -1.51925
H          3.02853        13.24282        -1.85646
O          6.79676         8.86388        -1.52332
H          7.17210         8.13757        -2.08491
O          6.58998         7.84082         2.01006
H          5.91860         7.31420         2.51579
H          0.31410         1.42614         0.65760
H          0.27098         3.86049         1.05741
H          2.46079         0.24674         0.19924
H          0.29690         5.79386         1.37237
H          0.27278         8.21602         1.52611
H          0.15720        10.20759         1.06285
H          0.14376        12.38973         0.04743
H          0.30473        14.38276         0.95421
H          0.33455        16.84647         1.13486
H          1.54570        19.05914         0.94830
H          4.84797         0.29370        -0.20356
H          3.59461        20.32628         0.42825
H          7.34920         0.27231        -0.39825
H          6.04231        20.34871        -0.11204
H          9.81547         0.27164        -0.35420
H          8.49230        20.32244        -0.33217
H         12.29720         0.28031        -0.28074
H         10.90202        20.33497        -0.27731
H         14.74295         0.34309        -0.06109
H         13.35556        20.40809        -0.43738
H         17.14664         0.37383         0.22310
H         15.86651        20.50599        -0.44980
H         19.63575         0.34673         0.60013
H         18.44714        20.52094        -0.31745
H         22.10146         0.17542         0.06827
H         20.91673        20.52708        -0.43152
H         24.63455         0.15455         0.05458
H         23.29822        20.70123        -0.48052
H         27.10507         0.16166        -0.09839
H         26.27288        20.29158        -0.55171
H         29.54873         0.16411        -0.09435
H         28.46820        20.36050         0.80533
H         31.68610         1.38134         0.17812
H         32.92152         3.51697         0.48957
H         32.94644         5.96197         0.71473
H         32.86001         7.83431         1.18969
H         32.84276        10.24738         1.47027
H         32.84908        12.19678         1.66227
H         32.77618        14.59595         2.00275
H         32.83596        16.56492         1.91085
H         30.80851        20.31534         1.27727
H         32.84928        19.03271         1.90275
