         210
 CSIRO Nanostructure Databank - Neutral Graphene Oxide Data Set
C         30.30309        31.93280        -0.39809
C         30.38155        33.16958        -0.52822
C         30.56447        36.25536        -1.16003
C         30.55794        37.47370        -1.44700
C         30.84942        40.71875        -1.56891
C         30.78639        41.88064        -1.09583
C         32.68991        29.14016        -0.33786
C         31.50848        29.67075        -0.33351
C         32.70202        31.80564        -0.13607
C         31.42220        31.05688        -0.26544
C         32.76584        33.18625        -0.34209
C         31.54818        33.98475        -0.60276
C         32.92433        35.99478        -1.30734
C         31.59665        35.31780        -0.93707
C         32.93813        37.51672        -1.16083
C         31.75512        38.28265        -1.38580
C         33.13833        40.26352        -1.45759
C         31.84125        39.69192        -1.53924
C         33.06342        42.29604        -0.66433
C         31.71286        42.72815        -0.45283
C         32.69923        44.06950         1.26020
C         31.70961        43.68731         0.61931
C         35.36414        27.44008         0.39335
C         35.21998        28.77899        -0.20869
C         33.96996        29.54633        -0.22317
C         35.27066        31.74104         0.24385
C         33.92409        30.99897         0.35330
C         35.28802        33.23214         0.01016
C         34.02483        33.93385        -0.33609
C         35.34300        35.99578        -0.61230
C         34.09035        35.27939        -0.66722
C         35.38194        37.41258        -0.70203
C         34.17969        38.16195        -0.91480
C         35.40458        40.31835        -0.42828
C         34.25612        39.59585        -0.94427
C         35.32885        41.63859         0.12499
C         34.14294        42.41298         0.24561
C         35.23559        44.43400         1.02806
C         34.08902        43.48459         1.37164
C         35.46329        45.62469         1.89725
C         37.71305        27.42159         1.04715
C         36.39359        26.85240         0.73698
C         37.73705        28.85210         0.55212
C         36.52407        29.52325        -0.05102
C         37.74892        31.67849        -0.09146
C         36.54497        31.01171         0.01450
C         37.80712        33.12237        -0.26905
C         36.57719        33.87275        -0.34333
C         37.80987        35.97338        -0.83027
C         36.56124        35.25480        -0.53770
C         37.84885        37.43269        -0.59205
C         36.62341        38.13789        -0.54340
C         37.85243        40.20931        -0.00933
C         36.61782        39.55373        -0.30720
C         37.85501        41.57142         0.42952
C         36.53631        42.13513         0.91502
C         37.77169        44.26610         1.40262
C         36.58547        43.65247         1.10765
C         37.88309        45.58848         2.21978
C         36.52834        46.21224         2.10778
C         40.18724        24.60486         1.17915
C         39.13814        25.30758         1.17406
C         40.24439        27.34871         0.87215
C         38.98157        26.68761         1.03980
C         40.29237        28.75956         0.55999
C         39.04600        29.43526         0.14746
C         40.31428        31.63213         0.03789
C         39.04225        30.92475        -0.16781
C         40.30656        33.06481        -0.13011
C         39.05746        33.75414        -0.42155
C         40.37743        35.94584        -0.72627
C         39.09509        35.17507        -0.81504
C         40.33916        37.39842        -0.46611
C         39.09122        38.10022        -0.41932
C         40.31248        40.19753         0.06022
C         39.08335        39.50306        -0.12663
C         40.31011        41.58393         0.41646
C         39.05329        42.24378         0.67252
C         40.24285        44.35761         1.16717
C         39.06077        43.62856         1.13091
C         40.24441        45.80559         1.33224
C         39.03818        46.41806         1.76106
C         40.11599        48.56086         1.45009
C         39.15476        47.80853         1.77344
C         42.76421        24.56143         1.00156
C         41.47217        25.15354         1.03531
C         42.72003        27.33875         0.80131
C         41.48112        26.61116         0.90575
C         42.75277        28.77765         0.70074
C         41.50053        29.46916         0.49660
C         42.74857        31.60739         0.46572
C         41.50926        30.90937         0.28540
C         42.70256        33.07564         0.51474
C         41.50941        33.76366        -0.00203
C         42.83485        35.95624         0.00597
C         41.62617        35.18744        -0.34571
C         42.80517        37.36498        -0.10681
C         41.55245        38.07644        -0.23781
C         42.76869        40.20962         0.07995
C         41.54526        39.49639        -0.03572
C         42.75613        41.61677         0.30296
C         41.52990        42.27112         0.55652
C         42.72225        44.47885         0.57440
C         41.57921        43.65754         1.13784
C         42.63223        45.89900         0.57705
C         41.40782        46.58164         0.97939
C         42.56071        48.66818         0.61043
C         41.35253        48.03528         1.02109
C         43.80257        25.24555         0.86726
C         45.19220        27.34811         0.73764
C         43.97683        26.64731         0.78873
C         45.23522        28.78836         0.80319
C         43.98032        29.49416         0.75178
C         45.21710        31.68524         0.79639
C         43.98046        30.94946         0.69808
C         45.28459        33.08451         0.64571
C         44.02031        33.84575         0.61562
C         45.27321        35.96844         0.22722
C         44.04318        35.27665         0.25276
C         45.26638        37.38931         0.09708
C         44.02837        38.08871         0.01166
C         45.23324        40.24342         0.02976
C         44.01447        39.51566         0.02211
C         45.20395        41.68732         0.03130
C         43.98741        42.36112         0.23156
C         45.11188        44.54724        -0.07430
C         43.92559        43.81285         0.24951
C         45.01952        45.97882        -0.10661
C         43.81059        46.63536         0.19939
C         43.58076        48.03218         0.26904
C         47.57323        27.38738         0.70587
C         46.48661        26.77496         0.68770
C         47.72916        28.79813         0.83358
C         46.48076        29.48501         0.87997
C         47.77556        31.70669         1.06830
C         46.44731        30.95059         1.30080
C         47.78114        33.12512         0.64734
C         46.51507        33.82190         0.55954
C         47.72814        35.96878         0.22854
C         46.51671        35.24371         0.35415
C         47.73837        37.37869         0.04067
C         46.49446        38.12203         0.06788
C         47.71338        40.30595        -0.05575
C         46.46339        39.53379         0.02794
C         47.64761        41.75056        -0.39254
C         46.42707        42.42865        -0.21515
C         47.57382        44.57101        -0.57482
C         46.35789        43.86058        -0.30939
C         47.35581        45.97731        -0.60528
C         46.27531        46.57282        -0.41807
C         50.23309        28.93311         0.50263
C         48.98364        29.45165         0.80832
C         50.29219        31.62901         0.37812
C         49.08637        30.93995         0.90945
C         50.24056        33.03929         0.25960
C         48.99685        33.77261         0.42377
C         50.20440        35.93981        -0.24063
C         49.04862        35.28740         0.49599
C         50.16010        37.34487        -0.49270
C         48.95478        38.05885        -0.27255
C         50.01512        40.23184        -1.17698
C         48.98274        39.54389        -0.30300
C         50.09502        41.74637        -0.96473
C         48.86175        42.44480        -0.71012
C         50.07214        44.43741        -1.01180
C         48.79551        43.88724        -0.76629
C         51.35216        29.45921         0.22171
C         52.59853        31.66350        -0.30287
C         51.49387        30.85772         0.06650
C         52.49762        32.91456        -0.38768
C         51.41642        33.78127        -0.16122
C         52.47624        35.97715        -0.86948
C         51.38386        35.17392        -0.41028
C         52.47222        37.20875        -1.04592
C         51.35708        38.09397        -0.91789
C         52.38593        40.36703        -1.40597
C         51.34767        39.45827        -1.12376
C         52.45217        41.61360        -1.51648
C         51.30959        42.44925        -1.23829
C         51.16520        43.85940        -1.22884
O         48.67323        31.48144         2.21385
O         43.18205        33.62178         1.80739
O         39.07310        29.90717        -1.23252
O         48.72491        40.09068         1.02178
O         36.10480        28.97550        -1.35215
O         33.31227        41.60034        -1.86162
O         37.64302        28.54938         1.97538
O         38.41869        35.49602        -2.08195
O         41.29682        35.49491        -1.76991
O         35.36013        32.67448         1.38723
O         46.24430        30.89958         2.74235
H         47.13666        30.92841         3.16206
O         41.91558        43.45731         2.56236
H         41.90083        44.33672         2.99743
O         36.40639        41.56455         2.26062
H         37.19521        41.83341         2.77771
O         49.33439        35.55418         1.92325
H         49.28908        36.52532         2.05940
O         34.30692        42.94950         2.65497
H         33.63052        42.26961         2.84770
O         49.51873        40.04290        -2.53420
H         50.16131        40.44813        -3.15500
O         33.08510        35.74871        -2.74105
H         32.34445        36.19598        -3.20449
O         35.04544        44.84765        -0.31805
H         35.67843        45.56556        -0.52566
O         38.12810        45.19991         3.57230
H         37.30757        44.80350         3.93314
O         33.69148        30.78499         1.76395
H         34.07508        31.55654         2.24359
