         272
 CSIRO Nanostructure Databank - Neutral Graphene Oxide Data Set
C        -11.47406         0.84457        -0.70955
C        -10.20227         1.58337        -0.46684
C         -8.99512         0.70806        -0.41843
C         -7.63591         1.32987        -0.27119
C         -6.41815         0.72971        -0.87883
C         -5.19493         1.57913        -1.02860
C         -3.89922         0.89770        -1.46359
C         -2.58206         1.58775        -1.21575
C         -1.26990         0.80558        -1.29910
C          0.02100         1.43379        -0.78377
C          1.13375         0.51856        -0.33068
C          2.34916         1.14434         0.36455
C          3.63739         0.33092         0.45893
C          4.93824         1.05451         0.86566
C          6.24745         0.35912         0.54611
C          7.52291         1.16480         0.36201
C          8.62423         0.54717        -0.45510
C          9.74690         1.39982        -0.94837
C         11.06396         0.73579        -1.12989
C         -9.98840         3.03900        -0.64486
C         -8.78678         3.61440        -0.32183
C         -7.77855         2.71786         0.37562
C         -6.33463         3.27178         0.70806
C         -5.19141         2.87618        -0.26766
C         -3.84037         3.45101         0.10764
C         -2.57573         2.96735        -0.60231
C         -1.26174         3.63639        -0.30199
C          0.05018         2.88675        -0.41134
C          1.28192         3.51708         0.21858
C          2.36507         2.60974         0.73674
C          3.60042         3.28130         1.38924
C          4.95331         2.57509         1.08681
C          6.22579         3.36052         0.84084
C          7.51709         2.65567         0.48236
C          8.64938         3.45325        -0.07996
C          9.70035         2.85653        -0.68194
C         -8.62914         5.05525        -0.19170
C         -7.58530         5.62113         0.47741
C         -6.40920         4.81750         0.90412
C         -5.10042         5.56483         1.00544
C         -3.82278         4.79981         0.78134
C         -2.56717         5.57707         0.49360
C         -1.29761         4.76387         0.73253
C         -0.07492         5.64918         0.74362
C          1.24989         4.94492         0.66137
C          2.35987         5.61003         1.45178
C          3.69024         4.83932         1.27471
C          4.94737         5.57208         0.91215
C          6.12085         4.79580         0.26308
C          7.41012         5.61010         0.37677
C          8.74023         4.89131         0.37108
C         -7.67023         7.07182         0.97136
C         -6.34692         7.84824         0.97833
C         -5.06473         7.08186         0.88334
C         -3.87424         7.80397         0.30833
C         -2.58012         7.04534         0.19264
C         -1.29158         7.89670         0.00434
C         -0.09722         7.12424         0.59461
C          1.23401         7.76035         0.24885
C          2.41928         7.09953         0.99609
C          3.69596         7.80006         0.69964
C          4.95645         7.03751         0.63596
C          6.13129         7.70799         0.42803
C          7.38231         6.96473         0.39041
C         -6.31254         9.31579         0.70259
C         -5.14703         9.99304         0.63567
C         -3.85199         9.30228         0.37139
C         -2.53943         9.95622         0.64538
C         -1.35862         9.29667         0.59248
C         -0.03605         9.95250         0.99736
C          1.22751         9.26519         0.48363
C          2.40553         9.90588         0.33047
C          3.65722         9.12980        -0.05522
C          4.96499         9.86232         0.18658
C          6.11408         9.16948         0.33198
C        -11.54550        -0.50178        -0.63328
C        -10.37485        -1.47252        -0.75961
C         -9.07149        -0.68481        -0.96479
C         -7.78661        -1.40765        -1.18922
C         -6.48605        -0.66519        -1.42801
C         -5.18600        -1.38412        -1.51729
C         -3.89626        -0.60918        -1.70871
C         -2.60705        -1.39438        -1.83466
C         -1.28673        -0.66177        -1.65180
C         -0.00591        -1.47518        -1.61601
C          1.16203        -0.89375        -0.83573
C          2.51444        -1.53513        -1.04304
C          3.70565        -0.99994        -0.27182
C          5.03608        -1.60394        -0.68069
C          6.27135        -1.06134        -0.00225
C          7.58140        -1.70955        -0.32374
C          8.89094        -0.92736        -0.18757
C          9.96760        -1.49672        -1.14919
C         11.18762        -0.60197        -1.15140
C        -10.11738        -2.52740         0.32873
C         -8.91437        -3.41853        -0.03942
C         -7.74109        -2.85457        -0.78931
C         -6.38029        -3.44417        -0.51573
C         -5.07260        -2.63672        -0.66267
C         -3.89196        -3.52646        -1.06692
C         -2.64355        -2.91215        -1.64900
C         -1.32908        -3.71751        -1.64890
C         -0.02589        -2.96124        -1.82823
C          1.27737        -3.72090        -1.66727
C          2.56501        -2.91998        -1.63219
C          3.87151        -3.71949        -1.87252
C          5.11583        -2.94124        -1.39236
C          6.43578        -3.71885        -1.48857
C          7.68325        -2.99632        -1.09881
C          8.93621        -3.74094        -0.77383
C         10.24488        -2.95972        -0.75714
C         -8.84966        -4.66361         0.48090
C         -7.57604        -5.41442         0.81659
C         -6.28887        -4.61778         0.42711
C         -4.96309        -5.32111         0.48580
C         -3.73063        -4.71967        -0.16330
C         -2.42705        -5.43907        -0.06343
C         -1.26743        -5.06262        -0.95562
C          0.03795        -5.78841        -0.66449
C          1.31522        -5.09524        -1.07037
C          2.63513        -5.65927        -0.60137
C          3.83859        -5.19530        -1.40645
C          5.12293        -5.96639        -1.24446
C          6.49565        -5.28312        -1.51739
C          7.60271        -5.80116        -0.56829
C          8.86472        -5.06539        -0.52221
C         -7.44344        -6.84810         0.36311
C         -6.27845        -7.59219         0.76517
C         -4.94646        -6.78029         0.84165
C         -3.71443        -7.59277         0.47079
C         -2.44104        -6.78277         0.62863
C         -1.17219        -7.51393         0.86996
C          0.08429        -6.98821         0.23218
C          1.37663        -7.45741         0.90969
C          2.65367        -6.93545         0.19359
C          3.79978        -7.88993        -0.01491
C          5.08938        -7.32837        -0.54253
C          6.36068        -7.95112         0.05455
C          7.52808        -7.00325         0.04955
C         -6.10392        -9.05570         0.56620
C         -4.94164        -9.68897         0.81563
C         -3.70307        -8.93138         1.25555
C         -2.37483        -9.66113         1.13649
C         -1.20188        -8.98695         1.11072
C          0.09312        -9.55457         1.67764
C          1.37733        -8.97797         1.11356
C          2.53127        -9.64963         1.28287
C          3.88971        -9.18308         0.83324
C          4.95189        -8.94434         1.88910
C          6.11291        -8.40487         1.49402
O          3.46830        -0.94059         1.15454
O         -6.76160         0.51355         0.55038
O         -3.24361         1.62779        -2.51620
O          4.24529        -8.20315        -1.35772
O          0.14525        -2.04464        -2.94482
O          1.72913         4.59816        -0.66628
O          0.69081        -0.61131         0.50830
O          4.66500         5.28313         2.29702
O         -0.19675         6.57657         1.91248
O          8.65246         0.93269        -1.85929
O         -5.85027         5.18808         2.19298
O         -1.81514        -6.74190         1.94221
O          1.35330        -4.88811        -2.51907
O          7.28435        -3.08014        -2.48734
O         -8.39769         2.42685         1.60652
O          5.84329         3.02861         2.17784
O          5.79513         4.61361        -1.07124
O          5.69319         0.36830         1.89084
O          3.04260         7.90878         2.02246
O          8.00048         1.79636         1.58045
O         -2.74668        -4.37161         0.88320
O         -5.63170        -7.10595         2.03118
O         -2.66618         6.07915        -0.87587
O         -4.04034         8.57456        -0.91215
O         -3.64027        -3.60133        -2.47439
O         -1.03966         8.02625        -1.35808
O         -3.32494        -0.95292        -3.00486
O         -5.99126        -1.16631        -2.70372
O          2.64921        -1.72627        -2.47535
O         -8.62449        -0.91550        -2.32452
O          5.20934        -1.67090        -2.11887
O         -3.66457         3.59125         1.54579
O         -5.50779         7.62687         2.17188
O          1.84825         1.60993         1.65257
O         -1.08106         0.35951        -2.66643
O         -5.42350        -4.43883         1.57746
O         -9.68494         0.98667         0.82899
O         -7.09441        -3.77237        -1.73105
O          7.01395        -5.76146        -2.69825
O         -1.95161         3.90558        -1.53124
O          4.30939        -6.06472        -2.44499
O          1.35469        -7.02585         2.24242
O          2.99048        -5.63507         0.80831
O          6.91039        -1.96726         0.95632
O         -5.47821         2.86238        -1.68315
O          0.02249        -7.16410        -1.20815
O          0.43192         2.44680        -1.74560
O         -1.50437        -4.95817        -2.38217
O         -1.29102         4.11371         2.01247
H         -1.06805         4.77631         2.70246
O          3.62529         8.83053        -1.46965
H          3.45337         9.65812        -1.96275
O         -5.96050         2.66256         1.92781
H         -6.77888         2.56449         2.47247
O         -9.78407        -1.85076         1.53589
H         -9.63014        -2.50718         2.24598
O         -4.75031        -2.05752         0.62159
H         -4.73062        -2.77751         1.30379
O          4.34988       -10.27751         0.02058
H          5.22759       -10.03374        -0.37240
O          4.00985        -3.79426        -3.29128
H          4.03928        -2.87548        -3.63725
O          0.03271         9.96149         2.43634
H          0.23691         9.05437         2.74718
O         -3.84636        -7.85278        -0.94612
H         -3.06115        -8.34851        -1.26321
O         -8.17264         7.02527         2.30791
H         -7.42895         6.72288         2.87792
O          9.46825        -1.54352        -2.49543
H          9.18673        -0.63167        -2.75090
O          3.37292         3.06186         2.78863
H          4.16948         3.38332         3.26731
O          9.38749        -1.06725         1.15095
H          8.61249        -1.10002         1.75800
O         -3.81056        -8.66828         2.66713
H         -3.03495        -8.12037         2.93086
O          6.72325        -9.11731        -0.73099
H          6.70922        -8.85394        -1.67670
O         -7.65982        -5.43657         2.26400
H         -6.80365        -5.78810         2.61476
O          1.43005         7.48381        -1.13779
H          0.57399         7.70859        -1.61335
O          2.02277         5.58019         2.83594
H          2.72618         6.07445         3.31174
O          9.27104         4.88098         1.71195
H          8.76382         4.23162         2.24411
O          0.07602        -9.17890         3.06213
H          0.47872        -8.26057         3.10042
O        -10.68042        -2.23941        -1.93839
H        -10.07559        -1.94000        -2.66084
O         11.16281        -3.53745        -1.68134
H         10.80197        -3.36483        -2.57851
H         12.17598        -1.06910        -1.27527
H         11.95228         1.38303        -1.18694
H         10.57453         3.45831        -0.97502
H          9.47398         5.45069        -0.26147
H          8.32507         7.53315         0.38143
H          7.07820         9.69584         0.39883
H          4.98436        10.96015         0.10400
H          2.47752        10.99499         0.48454
H         -0.03733        11.02340         0.67124
H         -2.56648        11.00104         0.99450
H         -5.15352        11.09239         0.58222
H         -7.26699         9.86102         0.75435
H         -8.41679         7.62127         0.34349
H         -9.47352         5.68790        -0.50803
H        -10.82689         3.64954        -1.01024
H        -12.40085         1.43573        -0.76707
H        -12.53750        -0.97283        -0.71258
H        -11.02377        -3.17605         0.47755
H         -9.73341        -5.04328         1.02025
H         -8.22263        -7.33708        -0.23940
H         -6.98442        -9.62220         0.22830
H         -4.88018       -10.78054         0.69215
H         -2.37214       -10.73060         1.40268
H          0.09680       -10.67197         1.60840
H          2.48460       -10.71035         1.57906
H          4.80465        -9.27806         2.92674
H          6.93911        -8.27617         2.21026
H          8.39797        -7.32552         0.64618
H          9.77193        -5.63013        -0.25792
H         10.70515        -3.00703         0.26198
