         276
 CSIRO Nanostructure Databank - Neutral Graphene Oxide Data Set
C        -11.23878         0.58247        -0.65322
C        -10.04223         1.39874        -0.46959
C         -8.84053         0.67414         0.03908
C         -7.62290         1.44792         0.43110
C         -6.32819         0.75410         0.78247
C         -5.00942         1.45557         0.82751
C         -3.72726         0.67579         0.94054
C         -2.55260         1.54890         1.43052
C         -1.23101         0.76706         1.62149
C          0.08689         1.46334         1.34022
C          1.26785         0.78131         1.29936
C          2.56761         1.44958         0.85088
C          3.90070         0.83060         1.36465
C          5.12481         1.54554         0.69613
C          6.39392         0.78536         0.49725
C          7.48622         1.44943        -0.29979
C          8.82774         0.75988        -0.59828
C         10.05415         1.54841        -0.19058
C         11.28638         0.76073        -0.09454
C        -10.02047         2.75265        -0.60117
C         -8.69765         3.48930        -0.74450
C         -7.59740         2.95701         0.22879
C         -6.23457         3.51436        -0.17434
C         -4.94700         2.78577         0.14916
C         -3.63026         3.48125         0.01157
C         -2.39056         2.77039         0.51077
C         -1.10763         3.51820         0.46249
C         -0.01879         2.99198         1.40881
C          1.31368         3.73700         1.24542
C          2.60469         2.95127         1.15625
C          3.88386         3.65973         0.80131
C          5.10828         2.88736         0.44245
C          6.37308         3.73525         0.20335
C          7.47787         2.92195        -0.42402
C          8.78315         3.61172        -0.83310
C         10.00775         2.90475        -0.27307
C         -8.71441         4.99143        -0.53460
C         -7.53353         5.71439        -0.34551
C         -6.21121         4.99114        -0.34796
C         -4.95704         5.71783         0.10588
C         -3.62362         4.97598        -0.11993
C         -2.45060         5.66534        -0.13206
C         -1.07217         4.95228        -0.13558
C         -0.09252         5.86754         0.65625
C          1.27831         5.20024         0.88311
C          2.54217         5.85766         0.36673
C          3.83255         5.09035         0.37768
C          4.84086         5.68543        -0.61217
C          6.25011         4.97644        -0.80479
C          7.56834         5.82209        -0.71480
C          8.72823         5.11250        -0.64508
C         -7.51954         7.12032        -0.24033
C         -6.29007         7.87454        -0.46809
C         -4.97261         7.12673        -0.46027
C         -3.74161         7.93097        -0.23261
C         -2.46482         7.17406        -0.08049
C         -1.20516         7.93131        -0.39131
C          0.05032         7.23195        -0.03163
C          1.33702         7.99347         0.22394
C          2.43304         7.16460        -0.47001
C          3.75033         7.90542        -0.39480
C          4.85107         7.14014        -0.20042
C          6.75404         8.16610        -0.60742
C          7.62337         7.25375        -1.11431
C         -6.21236         9.33567        -0.22313
C         -5.05809        10.02524        -0.25719
C         -3.75245         9.39194        -0.69818
C         -2.50461        10.09256        -0.21763
C         -1.21503         9.44488        -0.63435
C          0.08816        10.12953        -0.28645
C          1.31206         9.45388        -0.21274
C          2.54239        10.11523        -0.38994
C          3.77379         9.34645        -0.81510
C          5.11822        10.06333        -0.81761
C          6.37260         9.54998        -0.91854
C        -11.24131        -0.77167        -0.60540
C        -10.03258        -1.60519        -0.35237
C         -8.75699        -0.83264        -0.10752
C         -7.35374        -1.33994        -0.32779
C         -6.20476        -0.65454         0.31233
C         -5.01621        -1.44689         0.75254
C         -3.74724        -0.68450         0.98775
C         -2.56431        -1.47798         1.43524
C         -1.26152        -0.73642         1.65038
C          0.01363        -1.43736         1.17982
C          1.29508        -0.68935         1.72823
C          2.57935        -1.46804         1.32649
C          3.90654        -0.71358         1.23999
C          5.14281        -1.47905         0.84648
C          6.39833        -0.70913         0.47268
C          7.51754        -1.37624        -0.33199
C          8.82899        -0.65969        -0.06410
C         10.11058        -1.43331        -0.04548
C         11.33172        -0.59532        -0.18126
C        -10.12060        -3.08260        -0.61345
C         -9.05685        -3.84654        -1.03573
C         -7.13985        -2.74408        -0.72228
C         -6.14485        -3.54955        -0.29199
C         -5.01846        -2.92997         0.49747
C         -3.65172        -3.59158         0.33922
C         -2.57276        -2.97659         1.26667
C         -1.26458        -3.73227         1.37016
C          0.08574        -2.96728         1.47935
C          1.15626        -3.53124         0.51965
C          2.47828        -2.87996         0.79731
C          3.66449        -3.47267         0.08475
C          5.06992        -2.99492         0.53886
C          6.02628        -3.47218        -0.56461
C          7.68831        -2.81131         0.22588
C          8.87134        -3.59161        -0.28680
C         10.05354        -2.89477        -0.33058
C         -8.74884        -5.22738        -0.85565
C         -7.43038        -5.76192        -0.87763
C         -6.14736        -4.99148        -0.71188
C         -4.90927        -5.79176        -0.32215
C         -3.80530        -5.11078         0.45116
C         -2.58943        -5.90929         0.77571
C         -1.27945        -5.19317         1.02034
C         -0.08389        -5.72442         0.28520
C          1.26768        -5.05044         0.51463
C          2.27309        -5.59698        -0.55423
C          3.61219        -4.86068        -0.47726
C          4.88326        -5.67563        -0.61126
C          6.20552        -4.96293        -0.64315
C          7.49181        -5.67427        -0.38690
C          8.71220        -5.03070        -0.38173
C         -7.33551        -7.16670        -0.91955
C         -6.15284        -7.90565        -0.64903
C         -4.98508        -7.25940        -0.25418
C         -3.87396        -8.10452         0.33666
C         -2.54351        -7.37538         0.44773
C         -1.29089        -7.97581        -0.07626
C         -0.10778        -7.09240        -0.33024
C          1.19744        -7.79901        -0.49528
C          2.36271        -7.09766        -0.38497
C          3.60412        -7.85594         0.04175
C          4.92649        -7.01681         0.10905
C          6.19219        -7.78684        -0.25388
C          7.38498        -7.12141        -0.37948
C         -6.17796        -9.36593        -0.71922
C         -5.04226       -10.09957        -0.61900
C         -3.76012        -9.44080        -0.38929
C         -2.58757       -10.02488        -0.74650
C         -1.30254        -9.24763        -0.89721
C         -0.00893        -9.98659        -0.67583
C          1.20047        -9.27582        -0.58251
C          2.44083        -9.92549        -0.68423
C          3.71737        -9.13105        -0.80892
C          4.96950        -9.90032        -0.46864
C          6.13163        -9.23951        -0.27224
O         -8.02559        -3.15739        -1.70980
O         -1.22175         0.01985         2.88580
O          5.96543         7.65007         0.44370
O          6.33615         4.49873        -2.10929
O         -9.45339        -1.44973         1.01692
O          3.51302         3.40594         2.19188
O         -1.42891         2.53424        -0.57228
O         -8.61893         1.07745         1.44458
O         -1.22536        -4.78930         2.40681
O         -0.43993        -5.91429        -1.12279
O          4.83338        -1.25868         2.24639
O          3.53220        -3.65629        -1.33518
O          9.40098        -0.97127         1.20169
O         -5.80805         1.24480         2.04284
O         -4.16759         2.68671        -1.09437
O          1.42532         4.78100         2.26260
O         -5.60588         7.35772        -1.71892
O         -6.44036        -0.52991        -1.15495
O          7.47298        -2.93902         1.47503
O          6.90303         0.02961         1.62837
O          2.78898        -2.62480         2.21185
O         -2.95174        -2.38947         2.52610
O         -5.36804        -2.42007         1.80330
O          6.93754         2.07798        -1.49243
O          5.57912        -5.51004        -1.87337
O         -6.08943         4.12414        -1.50317
O          3.51710         6.01885         1.45846
O         -3.61025        -5.62110         1.78781
O         -1.62141        -8.12381         1.33437
O         -0.40893         7.26473        -1.41215
O         -5.08597        -5.27021        -1.69759
O         -3.16946         7.72538         1.09700
O         -3.19103        -3.30987        -1.00161
H         -3.76543        -3.81248        -1.63167
O         -0.70765         6.10399         1.92715
H         -0.21311         5.57634         2.60302
O         -0.58987         4.79410        -1.47142
H         -1.05724         4.01765        -1.85739
O          3.45044         9.29718        -2.27249
H          2.81269         8.54221        -2.39226
O         -0.00946        -1.27240        -0.25649
H          0.38336        -2.08790        -0.65708
O          3.97685         1.08350         2.76630
H          4.65401         0.47594         3.14101
O          1.55666         8.01948         1.64605
H          2.47403         7.73652         1.85392
O          3.83262        -8.69446        -2.19425
H          3.85847        -9.48798        -2.76777
O          6.79228         4.21168         1.48875
H          6.00570         4.45971         2.01994
O          7.28269        -1.33141        -1.73456
H          7.78813        -0.57166        -2.13915
O         -0.50464         3.27020         2.73788
H          0.16181         2.95408         3.38457
O         -2.96971         2.05814         2.70602
H         -2.77307         1.36584         3.37694
O          3.31693        -8.30825         1.39347
H          2.74780        -7.62853         1.82262
O          2.01427         6.94972        -1.82442
H          2.68672         6.34437        -2.23526
O         -7.86630         3.55530         1.51709
H         -8.34575         2.88437         2.05780
O          2.60408         1.28973        -0.59525
H          1.68985         1.31671        -0.95018
O         -1.10142         9.61203        -2.11815
H         -0.53532         8.85019        -2.40948
O          5.72536        -2.95133        -1.75329
H          5.90744        -3.60034        -2.47119
O          8.86875         3.44353        -2.28826
H          7.98358         3.79135        -2.60331
O         -4.28994        -8.43077         1.69138
H         -3.47044        -8.57416         2.21517
O          0.49981        -3.11720         2.85935
H         -0.08544        -3.79003         3.28227
O         -1.28427        -8.79896        -2.29398
H         -1.16548        -9.58508        -2.86668
O          5.37564        -3.70785         1.71469
H          5.23980        -3.10044         2.48317
O         -3.77023         9.42587        -2.15131
H         -2.83455         9.49317        -2.47005
O         -5.08737         5.83961         1.54287
H         -4.35125         6.42286         1.85645
O         -8.38623         3.21486        -2.13267
H         -7.53581         3.67058        -2.35790
O          4.20760         5.60307        -1.90798
H          4.88693         5.11807        -2.48239
O          1.79520        -5.39305        -1.88921
H          1.93807        -4.44882        -2.11872
O          1.28574        -0.62278         3.15317
H          1.30553        -1.55315         3.48318
O          8.94909         0.65859        -2.04718
H          8.81420         1.59139        -2.38983
O          1.79340        -5.51263         1.79576
H          1.65264        -4.78333         2.44688
O          5.10873        -6.61361         1.48721
H          4.84101        -7.38021         2.04701
H         12.30735        -1.10343        -0.22245
H         12.23297         1.32302        -0.07873
H         10.91958         3.49851        -0.09987
H          9.68955         5.64803        -0.71209
H          8.35125         7.53599        -1.89088
H          7.18575        10.25009        -1.17588
H          5.02074        11.14036        -1.03863
H          2.52107        11.19469        -0.62071
H          0.11247        11.21520        -0.48389
H         -2.51711        11.19602        -0.27198
H         -5.06330        11.10481        -0.04330
H         -7.14923         9.84074         0.05969
H         -8.46584         7.66786        -0.10992
H         -9.66320         5.54368        -0.63176
H        -10.93786         3.28323        -0.90289
H        -12.17645         1.11150        -0.88314
H        -12.18245        -1.30928        -0.79693
H        -10.97539        -3.58182        -0.13065
H         -9.57303        -5.93456        -0.67337
H         -8.25952        -7.73716        -1.10017
H         -7.13757        -9.85351        -0.94509
H         -5.05798       -11.18518        -0.79886
H         -2.61339       -11.03418        -1.19238
H          0.01941       -11.08135        -0.79442
H          2.46872       -11.01588        -0.84113
H          4.94718       -11.00088        -0.48025
H          7.07304        -9.79608        -0.13977
H          8.31384        -7.70212        -0.49697
H          9.62335        -5.65004        -0.35733
H         10.99308        -3.40793        -0.59145
