         252
 CSIRO Nanostructure Databank - Neutral Graphene Oxide Data Set
C         30.40008        31.79499        -1.87061
C         30.47243        32.92377        -1.33410
C         30.39772        35.88712        -0.08626
C         30.39812        37.10219         0.20562
C         30.40860        40.31132         0.71290
C         30.38634        41.56919         0.84759
C         32.86821        29.03490        -2.55485
C         31.77856        29.66756        -2.45109
C         32.81999        31.59646        -1.61439
C         31.57755        30.96957        -1.98959
C         32.85080        33.12716        -1.48437
C         31.52759        33.79525        -0.98550
C         32.77369        35.80297        -0.14621
C         31.49937        35.04469        -0.41745
C         32.77210        37.28129         0.19413
C         31.46877        38.02287         0.34432
C         32.77860        40.11814         0.70598
C         31.46572        39.38776         0.58059
C         32.75557        41.66248         0.75072
C         31.46522        42.45922         0.84565
C         32.67648        44.61289         1.23539
C         31.70862        43.83696         0.99942
C         36.13931        27.00159        -1.10380
C         35.97253        28.42316        -1.34676
C         34.11644        29.57968        -2.19954
C         35.26965        31.54398        -1.00724
C         34.06905        30.90455        -1.68019
C         35.36950        33.05039        -1.03688
C         34.03195        33.66267        -0.62988
C         35.24061        35.96718        -0.91440
C         33.99346        35.17300        -0.76160
C         35.18084        37.44884        -0.66757
C         33.98869        38.09317        -0.08693
C         35.26273        40.19894         0.20981
C         34.02020        39.44591         0.22138
C         35.22370        41.62927         0.37733
C         34.01173        42.27689         0.29936
C         35.25415        44.68342         1.41313
C         34.04114        44.49406         0.81133
C         35.68462        45.73803         2.26088
C         37.85849        27.25016         0.63358
C         36.87457        26.61626        -0.17301
C         37.65822        28.72682         0.50256
C         36.62709        29.25805        -0.47328
C         37.65767        31.40549         0.09045
C         36.40648        30.74755        -0.42072
C         37.88941        33.16089        -1.38956
C         36.53346        33.79453        -1.08703
C         37.74372        35.94797        -0.78971
C         36.54174        35.25026        -0.92764
C         37.75445        37.40977        -0.58692
C         36.49699        38.18840        -0.57907
C         37.72881        40.28353        -0.02042
C         36.49654        39.57454        -0.06814
C         37.74975        41.76224         0.15800
C         36.45169        42.49169         0.34650
C         37.82471        44.57687         1.07211
C         36.52298        43.71084         1.30431
C         38.08023        45.62571         2.23229
C         36.75726        46.29617         2.53632
C         40.25534        24.60715         1.52452
C         39.29273        25.31023         1.19601
C         40.26197        27.46666         1.41465
C         39.03562        26.70799         1.08455
C         40.18779        29.01734         1.42371
C         38.91477        29.55832         0.74853
C         40.56453        31.59752        -0.62490
C         38.88525        30.70944        -0.27331
C         40.34670        33.10982        -0.37793
C         39.08958        33.79828        -0.71906
C         40.16093        35.95676        -0.18289
C         38.98202        35.17700        -0.60951
C         40.11793        37.32836        -0.84832
C         38.92319        38.14883        -0.44690
C         40.18283        40.29781         0.00852
C         38.94185        39.57322        -0.15048
C         40.22924        41.68813         0.23522
C         39.03663        42.42932         0.48077
C         40.39312        44.39725         1.03207
C         39.10633        43.75674         0.89994
C         40.49058        45.76020         1.59727
C         39.22578        46.49932         1.84356
C         40.43117        48.61895         1.61101
C         39.44401        47.86858         1.89961
C         42.79574        24.73295         1.79007
C         41.44005        25.26175         2.20494
C         42.68027        27.61151         1.95532
C         41.41048        26.82075         1.80369
C         42.71034        29.08327         1.56956
C         41.48282        29.70688         0.98247
C         42.88161        31.61466         0.27062
C         41.57413        30.90135         0.32512
C         42.80226        33.12220         0.17301
C         41.47954        33.80800         0.01499
C         42.70167        36.10035         0.16201
C         41.44918        35.28075         0.19112
C         42.74094        37.49346         0.22742
C         41.60001        38.37387         0.54058
C         42.58363        40.28536        -0.76267
C         41.43947        39.59778        -0.08672
C         42.62234        41.73318        -0.30830
C         41.51031        42.37301         0.21837
C         42.84666        44.48216         0.53118
C         41.57792        43.75929         0.63321
C         42.94307        45.86537         0.86297
C         41.81847        46.49509         1.59854
C         42.98452        48.66298         1.17649
C         41.83604        48.21949         1.98715
C         43.77121        25.49232         1.86593
C         45.19935        27.54449         1.83115
C         44.01004        26.89501         1.88152
C         45.30129        29.08403         1.87194
C         44.03043        29.72201         1.32620
C         45.35820        31.75815         0.90502
C         44.09762        31.00033         0.85857
C         45.32994        33.26138         1.04041
C         43.96066        33.91442         0.72329
C         45.29506        36.07713         0.34539
C         43.96760        35.37951         0.45846
C         45.25861        37.54650         0.07446
C         43.94701        38.21543        -0.09672
C         45.07297        40.25278        -0.80484
C         43.89446        39.56891        -0.47914
C         45.11240        41.70432        -0.89817
C         43.84844        42.48136        -0.55498
C         45.22031        44.52832        -0.27758
C         43.97734        43.84202        -0.03764
C         45.20418        45.97809        -0.11667
C         44.09290        46.61161         0.42401
C         43.92411        48.01958         0.70359
C         47.61599        27.55009         1.60543
C         46.51001        26.99008         1.71527
C         47.84851        28.94588         1.36093
C         46.50862        29.61125         1.04312
C         47.85472        31.87921         1.09769
C         46.55494        31.13052         1.11120
C         47.83281        33.23167         0.42753
C         46.50410        33.91633         0.29716
C         47.75259        35.93124        -0.39038
C         46.52277        35.26319         0.04887
C         47.56404        37.30171        -1.02979
C         46.52459        38.25224        -0.39007
C         47.52250        40.24202        -1.51339
C         46.23304        39.44279        -1.32400
C         47.65231        41.67634        -1.05615
C         46.42379        42.34290        -0.43927
C         47.61637        44.47981        -1.33768
C         46.38294        43.83086        -0.66455
C         47.50722        45.93253        -0.92634
C         46.46609        46.49563        -0.56224
C         50.35171        29.06838         1.33810
C         49.03258        29.60212         1.30568
C         50.34365        31.66383         0.43452
C         49.18557        31.13771         1.32031
C         50.27612        32.89335        -0.28813
C         48.96040        33.70009        -0.49422
C         50.13887        36.06183        -0.91533
C         48.96101        35.26454        -0.56527
C         50.08965        37.44376        -1.13256
C         48.83879        38.10606        -1.22975
C         50.12388        40.33458         0.23298
C         48.73611        39.41147        -1.70661
C         50.16201        41.71297        -0.38951
C         48.94852        42.37655        -0.74371
C         50.18351        44.34519        -0.86124
C         48.90393        43.78206        -0.95926
C         51.45882        29.57703         1.08395
C         52.56807        31.42600        -0.32474
C         51.55259        30.86640         0.44172
C         52.53084        32.45779        -1.05910
C         51.36778        33.23525        -1.13732
C         52.64531        35.99324        -0.96168
C         51.41373        35.46909        -1.25077
C         53.73951        36.42407        -0.51549
C         51.32357        38.33325        -1.24633
C         52.50960        40.27485        -0.02723
C         51.53561        39.18759         0.02351
C         52.56362        41.49206        -0.27886
C         51.42649        42.38007        -0.41657
C         51.28804        43.75718        -0.65320
O         37.99679        32.36248        -2.31566
O         34.36465        35.64114        -2.07063
O         43.18251        32.31741        -0.98017
O         37.79878        29.54193         1.70398
O         51.96325        38.47754        -2.25938
O         35.27441        28.87544        -2.44108
O         40.47137        35.71796         1.23473
O         40.71081        37.48791        -1.90374
O         43.63950        34.81176         1.82301
O         35.72937        38.13430        -1.84077
O         40.79170        31.30004        -1.85424
O         32.97846        36.23772         1.23081
O         51.26847        34.30881        -2.01757
O         37.08521        42.56412        -0.94849
O         41.41625        45.81120         2.80944
O         44.38398        42.35409        -1.97622
O         32.97261        40.83596         1.95585
O         47.46508        41.34641        -2.47520
O         35.28499        31.14689         0.45288
O         49.32378        40.02052         1.06253
O         34.06500        43.54641        -0.26127
O         45.46849        37.03472         1.45074
O         48.01913        33.13503         1.86758
O         42.62599        28.64487         2.98574
O         38.46900        44.86702         3.38475
H         38.82448        45.47700         4.06505
O         45.79892        39.00224        -2.61990
H         45.67615        39.79638        -3.18217
O         33.06376        33.58892        -2.82374
H         32.31450        33.29696        -3.38417
O         38.66183        30.10884        -1.54311
H         39.44122        30.37241        -2.12359
O         41.30323        25.19719         3.58814
H         41.40584        24.27110         3.88747
O         49.59725        31.38718         2.68115
H         49.29583        32.29232         2.92552
O         37.63297        45.31941        -0.13856
H         37.48945        44.67267        -0.86755
O         47.07055        36.94878        -2.35038
H         47.71343        36.33667        -2.76553
O         42.06081        48.32995         3.34227
H         41.63897        47.56058         3.78974
O         51.51302        38.36986         1.14138
H         51.79385        38.86969         1.93369
O         49.72289        39.99992        -2.39534
H         49.37068        40.84307        -2.77303
O         36.59567        43.07270         2.58313
H         36.97039        43.70219         3.24397
O         46.19388        29.24574        -0.32478
H         46.94859        29.47630        -0.90492
O         40.07964        29.37989         2.81775
H         39.14567        29.23721         3.09243
O         33.78889        33.36591         0.75194
H         33.83517        32.39483         0.89434
O         47.11133        38.87697         0.76836
H         46.98130        38.26298         1.53023
O         45.45208        29.48440         3.23750
H         44.60725        29.29049         3.70274
O         47.47200        44.36136        -2.74985
H         46.63151        44.78567        -3.02117
O         46.49851        42.09560         0.99238
H         46.67709        41.13715         1.13640
O         37.54342        32.10958         1.19285
H         36.57942        32.17016         1.42359
O         42.42160        40.28665        -2.20354
H         43.05752        40.94587        -2.56853
O         48.50098        33.30979        -1.82053
H         49.20813        33.54631        -2.46130
O         40.81749        38.14685         1.61857
H         40.91444        37.21667         1.94636
O         45.58575        33.47576         2.44525
H         45.19606        34.34638         2.69516
