         762
 CSIRO Nanostructure Databank - Neutral Graphene Oxide Data Set
C         22.93686        26.50825         3.48250
C         21.71436        27.16385         3.12517
C         22.64668        27.71186         0.90110
C         21.58488        27.77872         1.92244
C         22.62996        28.80173        -0.13874
C         21.40215        29.62792        -0.26084
C         22.71320        31.67207        -0.69122
C         21.47076        30.96321        -0.46727
C         22.73932        33.06216        -0.70218
C         21.63372        33.86146        -0.25484
C         22.79368        36.02273        -0.54770
C         21.65997        35.23641        -0.18797
C         22.85254        37.42147        -0.35018
C         21.67427        38.15700         0.00993
C         22.91075        40.26927         0.14015
C         21.70067        39.50134         0.24695
C         22.92535        41.64120         0.46421
C         21.74969        42.37779         0.84487
C         23.07434        44.30977         1.68145
C         21.79775        43.64447         1.34629
C         23.08111        45.80111         1.85735
C         22.13442        46.42678         2.78730
C         23.46015        48.47954         2.78633
C         22.29792        47.72552         3.15779
C         25.95438        23.77017         2.85018
C         25.89397        25.08614         2.35301
C         24.00851        26.50086         2.63307
C         25.24882        27.51317         0.56498
C         23.98320        27.06580         1.26479
C         25.21638        28.80736        -0.10401
C         23.92746        29.43109        -0.52976
C         25.23766        31.56852        -0.92895
C         23.92091        30.84652        -1.14817
C         25.26222        33.01221        -1.21306
C         23.94918        33.78808        -1.16657
C         25.29261        36.01150        -1.03382
C         23.96687        35.29887        -1.08067
C         25.34099        37.45711        -0.66971
C         24.08992        38.17075        -0.47286
C         25.35105        40.32059        -0.51884
C         24.10302        39.56183        -0.27093
C         25.43725        41.74977        -0.07148
C         24.19449        42.40453         0.41492
C         25.58708        44.43807         1.01430
C         24.34028        43.64155         1.24661
C         25.57629        45.80999         1.14920
C         24.35966        46.56265         1.53498
C         25.76210        48.63730         1.82831
C         24.51191        47.92156         2.09735
C         25.92122        50.01170         2.27328
C         27.78640        23.23858         1.34559
C         26.81690        22.83584         2.29140
C         27.73164        24.60779         0.85990
C         26.63749        25.50390         1.23640
C         27.50223        27.15114        -0.47370
C         26.43011        26.76772         0.55462
C         27.60179        28.64995        -0.75112
C         26.38779        29.44830        -0.49073
C         27.71398        31.56019        -0.86128
C         26.41815        30.87248        -0.77940
C         27.73076        33.02389        -0.88561
C         26.53865        33.72477        -0.99977
C         27.83372        35.90284        -0.67799
C         26.51419        35.18098        -0.78270
C         27.81172        37.36863        -0.93677
C         26.55960        38.10026        -0.66488
C         27.95567        40.22865        -0.39392
C         26.64911        39.57017        -0.70509
C         27.98239        41.59755         0.01002
C         26.73722        42.23917         0.55474
C         28.03863        44.41017         0.60526
C         26.79688        43.74522         0.65110
C         28.10343        45.84782         1.10233
C         26.80489        46.58049         0.72793
C         28.01242        48.75365         0.78233
C         26.81739        48.00809         1.20173
C         28.07591        50.23374         1.10137
C         27.01809        50.75099         1.98105
C         30.03899        20.22174         1.02099
C         28.95787        21.04087         1.40403
C         30.06161        22.92147         0.27490
C         28.89110        22.37866         1.00952
C         30.06068        24.38517        -0.04012
C         28.84930        25.15859         0.25240
C         30.14141        27.26915        -0.32613
C         28.84716        26.60535        -0.03253
C         30.25240        28.59128        -1.06244
C         28.90509        29.35772        -1.04924
C         30.17324        31.54266        -1.15014
C         28.89647        30.84522        -0.93092
C         30.22190        33.00238        -1.02397
C         29.01367        33.73111        -0.88296
C         30.30884        35.84285        -1.01825
C         29.07642        35.14495        -0.87456
C         30.37433        37.29268        -0.85296
C         29.13616        38.09932        -0.88345
C         30.35522        40.09589         0.25139
C         29.14066        39.49867        -0.44222
C         30.44310        41.58582        -0.01356
C         29.21620        42.30499         0.08606
C         30.56163        44.40700         0.53304
C         29.23093        43.71579         0.33798
C         30.51396        45.89937         0.33339
C         29.33751        46.61457         0.64599
C         30.46575        48.78284         0.28816
C         29.28852        48.02568         0.58434
C         30.43522        50.18466         0.19813
C         29.45210        50.87932         1.13460
C         30.31674        53.10352         0.39797
C         29.37543        52.37454         1.00116
C         33.23348        19.34563        -2.00950
C         33.12214        20.18585        -0.88603
C         31.18166        20.75337         0.42423
C         32.57422        22.86245         0.36617
C         31.37403        22.18911         0.33481
C         32.46681        24.33457         0.71640
C         31.35670        25.09492         0.00613
C         32.52941        27.23127         0.26975
C         31.38854        26.46494        -0.14434
C         32.74505        28.62506        -0.35105
C         31.43000        29.38260        -0.50267
C         32.74317        31.55118        -0.82695
C         31.50556        30.75842        -0.95456
C         32.70409        32.90498        -1.13478
C         31.46731        33.67507        -1.13918
C         32.75137        35.85206        -1.52911
C         31.49881        35.09391        -1.16116
C         32.80460        37.26419        -0.98829
C         31.57837        37.97074        -0.73513
C         32.97242        40.15662        -0.20200
C         31.68481        39.23602         0.10742
C         32.77732        41.56295        -0.67907
C         31.65922        42.29339        -0.24051
C         32.78356        44.47094        -0.71632
C         31.68845        43.74129        -0.22322
C         32.80182        45.91574        -0.64453
C         31.70747        46.58056        -0.05394
C         32.69452        48.89510        -1.65305
C         31.73936        48.02285         0.27877
C         32.64394        50.35549        -1.23262
C         31.40287        50.98025        -0.60257
C         32.71673        53.21162        -0.39187
C         31.41719        52.49142        -0.39892
C         32.80772        54.46266         0.15853
C         35.53852        20.01396        -2.27481
C         34.39985        19.32768        -2.75352
C         35.38853        20.88078        -1.16640
C         34.13743        21.09708        -0.53324
C         35.13070        23.13071         0.66393
C         33.92779        22.16695         0.56466
C         35.04826        24.51632         0.93390
C         33.74348        25.12202         0.83900
C         35.35403        27.62191         0.95059
C         33.49773        26.50982         0.98061
C         35.23262        28.77863         0.25348
C         33.89058        29.52666         0.23642
C         35.19415        31.46182        -0.76134
C         33.98539        30.85238        -0.52498
C         35.26819        32.84124        -1.28198
C         33.96422        33.61016        -1.42517
C         35.24105        35.70468        -1.28190
C         34.02565        35.07195        -1.31571
C         35.26931        37.16945        -1.08445
C         34.00826        37.93145        -0.98178
C         35.18626        40.05662        -1.33979
C         34.08197        39.37976        -0.88344
C         35.11964        41.49541        -1.69690
C         33.85884        42.28449        -1.37233
C         35.11353        44.44180        -1.58731
C         33.93563        43.76539        -1.27747
C         35.17166        45.88758        -1.49175
C         33.84107        46.60867        -1.56003
C         35.15633        48.79545        -1.43452
C         33.96589        48.13096        -1.45735
C         35.22843        50.29549        -1.34762
C         33.94441        51.09829        -1.24236
C         35.13879        52.93206         0.11709
C         34.02882        52.59209        -0.86743
C         35.20589        54.33208         0.61448
C         34.05280        55.07688         0.52281
C         38.28643        18.36754        -4.27313
C         37.02666        18.88038        -3.90604
C         38.04797        20.19529        -2.12126
C         36.86744        19.70399        -2.79841
C         37.92793        21.03638        -1.01415
C         36.59833        21.33903        -0.45668
C         37.66744        23.12914         1.07331
C         36.43578        22.44647         0.56237
C         37.57360        24.58700         1.38741
C         36.30916        25.31664         1.07542
C         37.74990        27.37124         0.81043
C         36.46069        26.68763         0.91481
C         37.75684        28.72647         0.35661
C         36.51806        29.32869        -0.23123
C         37.72382        31.57183        -0.46194
C         36.49948        30.76698        -0.63642
C         37.75281        32.91307        -0.81050
C         36.52314        33.61383        -1.14898
C         37.77476        35.70140        -1.72229
C         36.50250        34.99041        -1.29346
C         37.79798        37.20721        -1.58445
C         36.52649        37.91282        -1.35549
C         37.72378        40.09847        -1.81673
C         36.42681        39.34743        -1.71842
C         37.69071        41.57605        -1.49291
C         36.39894        42.23404        -1.96471
C         37.66000        44.47348        -1.86476
C         36.37006        43.74479        -1.97974
C         37.63751        45.82285        -1.62921
C         36.37795        46.54872        -1.51385
C         37.62675        48.60248        -0.81158
C         36.47184        48.05671        -1.64666
C         37.65983        50.04250        -0.46252
C         36.49039        50.91900        -0.81490
C         37.66562        52.81203         0.49164
C         36.41370        52.16386         0.02903
C         37.64588        54.00205         1.17240
C         36.43368        54.80538         1.23468
C         37.73186        56.63766         2.23892
C         36.51295        56.08381         1.77609
C         40.75707        16.87341        -4.69493
C         40.69121        17.96226        -3.79654
C         39.43587        18.68123        -3.56139
C         40.51697        20.15398        -1.91171
C         39.35597        19.70569        -2.53586
C         40.49368        21.26244        -0.94523
C         39.11393        21.69242        -0.44739
C         40.28564        23.17111         1.31051
C         39.02105        22.49695         0.82397
C         40.18065        24.59456         1.82596
C         38.86919        25.34054         1.65713
C         40.14520        27.50200         1.33599
C         38.92797        26.76571         1.25746
C         40.12238        28.90537         1.01039
C         38.92178        29.48581         0.48882
C         40.17077        31.73170         0.22535
C         38.87043        30.94642         0.21729
C         40.19762        32.99411        -0.51352
C         39.01458        33.63387        -0.87062
C         40.21676        35.74540        -1.21760
C         39.04071        35.02754        -1.24658
C         40.19032        37.21516        -1.11568
C         38.96203        37.93368        -1.51643
C         40.18320        40.11732        -1.46109
C         38.99900        39.38627        -1.55729
C         40.23564        41.54976        -1.63512
C         38.97181        42.24660        -1.97338
C         40.24403        44.44595        -1.92917
C         38.94993        43.76250        -2.11933
C         40.23675        45.92070        -1.93690
C         38.90634        46.60235        -1.72495
C         40.25652        48.59174        -0.78549
C         38.94524        47.88721        -0.96081
C         40.25792        50.03092        -0.41878
C         38.97353        50.77040        -0.40593
C         40.22635        52.86054         0.48643
C         38.94585        52.20512         0.06700
C         40.20230        53.93191         1.49828
C         38.85103        54.42110         2.00806
C         40.15712        56.47846         2.72484
C         38.90183        55.90655         2.29131
C         40.32214        57.83452         2.86072
C         43.08797        16.50992        -4.14910
C         41.95129        16.17483        -4.87512
C         43.06460        17.57487        -3.21116
C         41.84727        18.31186        -3.06789
C         42.99954        19.89817        -1.41631
C         41.80901        19.53889        -2.24639
C         42.87665        20.89424        -0.31541
C         41.68799        21.57691        -0.10872
C         42.80758        23.22471         1.32517
C         41.62686        22.69805         0.80669
C         42.79108        24.58553         1.98531
C         41.47481        25.38259         2.02461
C         42.35972        27.78263         2.18558
C         41.33374        26.88788         1.87474
C         42.47822        29.08493         1.63131
C         41.33242        29.68785         1.10025
C         42.63478        31.68241         0.40180
C         41.43046        31.02726         0.54682
C         42.74089        32.87660        -0.47002
C         41.48182        33.56553        -0.90401
C         42.79360        35.83672        -1.11918
C         41.51093        35.06077        -1.26221
C         42.73262        37.26357        -0.82146
C         41.44476        37.97223        -0.86685
C         42.74626        40.16597        -1.17319
C         41.47373        39.39966        -1.31205
C         42.70478        41.64430        -1.27730
C         41.43813        42.28220        -1.56835
C         42.68919        44.43993        -1.65459
C         41.42166        43.72932        -1.70348
C         42.70874        45.84787        -1.87195
C         41.51468        46.65915        -1.72361
C         42.71660        48.77811        -1.07821
C         41.51631        48.00044        -1.33209
C         42.70663        49.95973        -0.27821
C         41.44294        50.65284        -0.10692
C         42.70348        52.52983         1.04707
C         41.50448        52.06577         0.33177
C         42.66142        53.75831         1.75313
C         41.37303        54.39880         2.04425
C         42.59653        56.19615         3.43020
C         41.26679        55.50402         3.10220
C         42.58076        57.64291         3.73457
C         41.51396        58.41309         3.41640
C         45.43319        17.15817        -2.48085
C         44.22407        17.89745        -2.42137
C         45.40480        19.57557        -0.93536
C         44.10177        18.87066        -1.27651
C         45.29826        20.60197         0.12385
C         44.08182        21.25385         0.39333
C         45.30118        23.03602         1.52180
C         44.06736        22.50018         1.13920
C         45.40075        24.46044         1.83728
C         44.16428        25.24291         2.07323
C         44.86536        27.46431         1.07197
C         44.23094        26.71591         2.00664
C         44.98246        28.91445         1.09788
C         43.82394        29.73762         1.54275
C         45.19992        31.70631         0.50215
C         43.89200        31.14153         0.94095
C         45.26071        33.03631         0.08297
C         44.04342        33.62343        -0.52270
C         45.21243        35.81046        -0.14004
C         44.06531        35.09392        -0.79226
C         45.17630        37.29936        -0.00808
C         43.88422        38.00923        -0.31134
C         45.19405        40.24109        -0.34045
C         43.88176        39.50971        -0.43054
C         45.17756        41.68344        -0.79662
C         43.89976        42.34347        -1.20901
C         45.18211        44.45571        -1.50680
C         43.92546        43.76075        -1.46867
C         45.20232        45.81944        -1.85128
C         43.96739        46.40483        -2.16122
C         45.20402        48.77606        -1.01642
C         43.97189        48.41657        -1.60380
C         45.16354        49.87446        -0.12298
C         43.93330        50.54295         0.14113
C         45.12123        52.45978         1.21215
C         43.91748        51.82399         0.85340
C         45.11358        53.71501         1.85747
C         43.88793        54.32040         2.20009
C         45.14744        56.36947         2.96481
C         43.89953        55.57027         3.00194
C         46.57257        17.50442        -1.78217
C         47.87333        19.15877        -0.27225
C         46.69783        18.81422        -1.12187
C         47.83446        20.33774         0.51073
C         46.52288        20.93770         0.82861
C         47.88194        22.93824         1.75343
C         46.55077        22.28121         1.60050
C         47.89669        24.33314         1.75724
C         46.70294        25.07347         1.48321
C         47.96349        27.05893         0.76840
C         46.78574        26.28261         0.79889
C         47.99436        28.37661         0.27736
C         46.06908        29.51608         0.48739
C         47.69322        31.48021         0.26768
C         46.38182        30.92249         0.50751
C         47.73601        32.91084         0.08426
C         46.51548        33.67980        -0.05817
C         47.69458        35.85760        -0.17392
C         46.51252        35.10188        -0.19612
C         47.68921        37.27660        -0.09444
C         46.46259        38.04796        -0.08414
C         47.71794        40.13984        -0.54300
C         46.44564        39.43118        -0.27077
C         47.70294        41.59554        -1.05993
C         46.44461        42.36629        -1.14632
C         47.67803        44.50039        -1.47351
C         46.44441        43.73529        -1.37196
C         47.69788        45.89212        -1.63264
C         46.45918        46.66889        -2.03190
C         47.65143        48.65505        -1.04086
C         46.43953        48.05384        -1.32903
C         47.73119        49.93286        -0.29859
C         46.44828        50.44603         0.32286
C         47.45715        52.80207         0.40583
C         46.42658        51.81625         0.91192
C         47.64993        53.96524         1.37415
C         46.40397        54.42096         2.12193
C         46.31037        55.82640         2.57496
C         50.01686        18.60995         0.70595
C         49.00752        18.33258        -0.21648
C         49.97667        19.80458         1.43177
C         48.97371        20.77528         1.25424
C         50.37343        22.81667         1.90831
C         49.12107        22.17118         1.73881
C         50.42164        24.32041         2.24069
C         49.13825        25.09153         1.95028
C         50.35752        27.26943         1.17248
C         49.12734        26.54120         1.48966
C         50.31111        28.58796         0.73864
C         49.05967        29.28326         0.46818
C         50.17266        31.49516         0.25334
C         48.96009        30.73853         0.29585
C         50.19212        32.90988         0.08590
C         48.96435        33.60694        -0.05530
C         50.24568        35.79989        -0.41294
C         48.93768        35.06073        -0.36428
C         50.23117        37.21757         0.05143
C         48.95980        37.99639         0.19072
C         50.18085        40.45156         0.08514
C         48.95685        39.54218         0.08308
C         50.18592        41.77811        -0.59437
C         48.93242        42.37913        -1.07737
C         50.15973        44.44101        -1.41256
C         48.92803        43.76765        -1.31208
C         50.17811        45.89377        -1.35069
C         48.91652        46.63196        -1.51184
C         50.13679        48.82986        -1.40313
C         48.92548        48.02978        -1.33849
C         50.14099        50.22770        -1.25459
C         48.95344        50.82717        -0.52573
C         49.51235        53.31795        -0.69369
C         48.74389        52.28057        -0.23757
C         49.43563        54.66129        -0.13397
C         48.67445        54.94005         0.95100
C         53.15558        20.25688         2.58648
C         51.89688        20.81587         2.32141
C         52.91785        22.96960         1.95777
C         51.70480        22.18666         2.01068
C         52.85391        24.39465         1.70492
C         51.64181        25.04644         1.65868
C         52.85039        27.25755         1.03930
C         51.58639        26.45657         1.17036
C         52.81792        28.71970         0.91728
C         51.56089        29.31508         0.44561
C         52.75428        31.56630         0.49957
C         51.49797        30.80846         0.24716
C         52.74371        32.96182         0.26628
C         51.46581        33.64068         0.03380
C         52.75076        35.73430        -0.30857
C         51.47812        35.00786        -0.16363
C         52.71828        37.23198        -0.08102
C         51.43658        37.72693         0.42398
C         52.68418        40.32152        -0.27323
C         51.52967        39.90149         0.32692
C         52.67297        41.64102        -0.90967
C         51.48046        42.33148        -1.03925
C         52.73377        44.44731        -1.74928
C         51.42331        43.70174        -1.57018
C         52.75134        45.93071        -1.70813
C         51.47295        46.64701        -1.47993
C         52.70723        48.81524        -1.86884
C         51.38442        48.10413        -1.80542
C         52.68432        50.25491        -1.49239
C         51.37607        50.97989        -1.48885
C         52.71271        53.03540        -1.99537
C         51.49156        52.35653        -1.65474
C         54.30261        21.02058         2.46846
C         55.46084        23.14001         1.93209
C         54.21770        22.38574         2.11821
C         55.44822        24.51835         1.72557
C         54.12369        25.17448         1.78496
C         55.31150        27.41941         1.42552
C         54.07825        26.64136         1.57624
C         55.21220        28.80153         1.42914
C         53.96268        29.46947         1.11961
C         55.19427        31.62604         0.89819
C         53.95448        30.90381         0.86152
C         55.21412        33.00269         0.53848
C         53.98320        33.67100         0.25114
C         55.22030        35.79715        -0.07918
C         54.02912        35.06535        -0.05982
C         55.23342        37.24684        -0.26078
C         53.98856        38.02333         0.04083
C         55.14686        40.13003        -0.86470
C         53.95692        39.52903        -0.16504
C         55.16976        41.61269        -1.00660
C         53.94588        42.31656        -1.14500
C         55.19912        44.39504        -1.44850
C         53.97458        43.70468        -1.43539
C         55.21264        45.84770        -1.78909
C         53.94258        46.61754        -1.75119
C         55.20253        48.76402        -1.75118
C         53.99742        48.06899        -1.76352
C         55.24812        50.24077        -2.09153
C         53.99955        50.99782        -1.65823
C         53.91626        52.40930        -2.02593
C         57.90884        23.12182         1.74561
C         56.74994        22.46674         1.95392
C         58.00283        24.58060         1.39093
C         56.64362        25.30514         1.50240
C         57.68806        27.60666         1.20212
C         56.55824        26.70275         1.35576
C         57.67157        28.88706         1.66433
C         56.38053        29.62087         1.90013
C         57.63643        31.69204         1.20316
C         56.42644        31.00147         1.27188
C         57.68236        33.05361         0.75718
C         56.45544        33.71285         0.46992
C         57.69090        35.76880        -0.08551
C         56.46908        35.10174         0.10817
C         57.66452        37.13898        -0.64236
C         56.40595        37.90215        -0.54773
C         57.71665        40.05944        -1.03296
C         56.42196        39.32996        -0.97412
C         57.68045        41.52876        -1.27866
C         56.39717        42.28040        -1.13154
C         57.66132        44.42621        -1.00993
C         56.40562        43.68631        -1.27897
C         57.66281        45.92638        -1.03251
C         56.48390        46.61793        -1.62496
C         57.66118        48.77336        -1.34635
C         56.46466        48.09267        -1.55504
C         57.61445        50.22314        -1.26322
C         56.49523        50.91246        -1.56655
C         59.67898        24.75270         3.39849
C         59.09530        25.27346         2.23456
C         60.27432        27.42664         2.65404
C         59.50346        26.56273         1.86594
C         60.19603        28.92866         2.45438
C         58.90005        29.61507         2.06674
C         60.20146        31.79932         1.57661
C         58.88189        31.08861         1.75085
C         60.18508        33.10943         0.87238
C         58.93559        33.75048         0.60613
C         60.17209        35.81453        -0.01495
C         58.93197        35.10800         0.14346
C         60.19174        37.24744        -0.27999
C         58.96356        37.91999        -0.75191
C         60.18911        40.11161        -0.73932
C         58.91883        39.41029        -0.82683
C         60.32961        41.55257        -1.22678
C         58.98554        42.29140        -1.30646
C         60.11095        44.45588        -0.72181
C         58.96141        43.74694        -1.00853
C         60.13286        45.92293        -0.75922
C         58.94481        46.64658        -1.02296
C         60.16409        48.73612        -1.08458
C         58.93223        48.05843        -1.16488
C         60.58553        25.52848         4.13466
C         60.85257        26.86208         3.80414
C         61.42818        29.69844         2.15247
C         61.42618        30.96899         1.69310
C         61.37619        33.78130         0.58728
C         61.37138        35.10978         0.15545
C         61.31616        38.01834        -0.08838
C         61.32168        39.41124        -0.38882
C         61.37093        42.35633        -0.48378
C         61.30997        43.69713        -0.37972
C         61.34141        46.64854        -0.67861
C         61.34652        48.03116        -0.84758
O         33.11711        51.03120        -2.45262
O         32.76689        48.55191         0.74229
O         49.56845        35.43887        -1.65355
O         53.98568        26.11593         2.94813
O         35.44029        51.93879         1.13340
O         46.27977        19.92396        -2.03740
O         23.90708        43.54635         2.63642
O         41.10194        53.08633        -0.65720
O         27.69261        49.79762        -0.22238
O         43.47308        38.90995         0.82224
O         30.83070        51.90582        -1.60354
O         46.38365        21.01744         2.28744
O         34.65076        33.04713        -2.60199
O         50.95278        46.37149        -0.13793
O         44.94523        24.75334         3.22487
O         29.82311        23.37858        -1.11120
O         25.92507        40.13410        -1.85319
O         24.58679        35.85185        -2.29331
O         37.40172        23.56574         2.42836
O         40.55435        37.67561         0.27271
O         38.93495        42.85389        -3.27877
O         42.39745        39.53440        -2.45599
O         51.63372        29.89329        -0.90496
O         31.95309        38.63378         1.34248
O         34.11209        41.73454        -2.72208
O         47.48226        53.67100         2.78039
O         56.08186        46.12167        -2.95143
O         50.85467        19.92465         2.51253
O         58.30756        41.94455        -2.56471
O         34.33015        27.24545         1.82135
O         45.64002        26.74534         0.13194
O         54.19024        38.94158         1.15785
O         39.67313        47.73736         0.29590
O         36.36294        42.92701        -3.21630
O         41.53616        34.02774        -2.28288
O         52.29902        26.57166        -0.13589
O         43.96984        30.89089         2.40068
O         43.64283        32.73103        -1.61968
O         38.93789        51.88396        -1.36315
O         32.05367        19.85136        -0.06351
O         48.77531        38.87936         1.35452
O         42.07552        24.81081         3.23163
O         23.00301        26.38781         0.40223
O         43.82446        35.49939        -2.15980
O         43.99510        47.66314        -2.78762
O         51.53006        38.84960         1.24277
O         43.43730        27.35903         2.96975
O         48.80007        49.99593         0.68430
O         39.84120        22.47764        -1.46941
O         50.42253        53.23536        -1.73600
O         29.50010        27.43501         0.99893
O         42.85301        20.51844        -2.71735
O         37.00572        39.68800        -3.01563
O         57.42016        45.23388         0.23617
O         24.73457        42.66593        -0.94580
O         37.35364        49.03660         0.54918
O         59.28400        29.44817         3.48625
O         31.75042        48.40362        -2.26730
O         43.38130        55.40203         4.38510
O         44.97729        36.42581         1.16674
O         46.85260        28.77839        -0.40096
O         58.36486        37.27233        -1.92804
O         36.19593        50.96874        -2.22779
O         23.23429        28.45753        -1.42169
O         53.52389        50.59756        -0.33941
O         46.67710        50.68217         1.76429
O         27.09396        35.54446         0.53394
O         28.42597        37.83045        -2.16851
O         36.64303        29.67976        -1.64970
O         23.24202        46.47489         0.56511
O         52.66190        36.68026        -1.43447
O         39.27755        31.74158         1.39379
O         28.04045        28.89411        -2.14229
O         36.44428        21.03993         1.00237
O         52.02008        43.89469        -2.91293
O         39.36009        24.94128         2.97439
O         39.47932        46.55861        -3.05587
O         30.89370        30.98953        -2.30449
O         50.01909        41.66394         0.91059
O         48.92785        26.19410         2.91541
O         47.83487        40.41312        -1.98452
O         55.50811        39.49990        -2.13623
O         25.18586        25.99105         3.14878
O         45.15550        41.32480         0.65261
O         24.49609        33.33434        -2.43158
O         59.44128        31.89035         2.83603
O         51.94822        48.50409        -3.09043
O         36.14222        37.60911         0.04255
O         39.66535        22.05230         2.04305
O         58.91672        27.12171         0.70977
O         33.48784        40.48063         1.11664
H         33.10626        39.74297         1.70131
O         37.65616        41.70277        -0.04475
H         38.33838        41.11646         0.34737
O         23.79644        30.69249        -2.58111
H         23.35681        29.82281        -2.73512
O         46.71025        53.38675        -0.72798
H         47.28133        54.05481        -1.16570
O         36.87362        48.32390        -3.01368
H         36.21198        47.93224        -3.62209
O         30.55910        28.27622        -2.45004
H         30.56493        29.14143        -2.92931
O         33.33834        46.34151        -2.89707
H         32.50781        46.87091        -3.00384
O         31.97266        24.27264         2.12608
H         32.65628        23.79739         2.64906
O         40.83805        54.86610         4.34251
H         41.66269        54.58728         4.80840
O         32.67324        36.02594        -2.98924
H         32.69561        35.13551        -3.40191
O         50.61077        24.35538         3.68295
H         50.20684        25.19402         4.00634
O         60.83865        41.44693        -2.58484
H         60.05201        41.32649        -3.16734
O         29.95558        50.61527         2.48384
H         30.86178        50.98208         2.55853
O         56.19328        29.81818         3.33462
H         57.07666        29.98448         3.73230
O         34.40199        53.28311        -2.08169
H         33.85318        52.90858        -2.80718
O         55.27572        50.34332        -3.54625
H         55.99669        49.76807        -3.87884
O         26.65450        41.73407         1.93769
H         27.51934        41.89344         2.37466
O         27.12707        26.48963        -1.69810
H         27.38267        27.07949        -2.44451
O         46.59691        46.93416        -3.45624
H         45.76974        47.38366        -3.74506
O         37.78542        35.50019        -3.18238
H         37.76226        34.53546        -3.36104
O         28.18049        45.77070         2.54680
H         29.00500        45.28025         2.76879
O         30.85262        44.23061         1.98482
H         31.79368        44.46826         2.13230
O         33.53648        29.88964         1.58580
H         33.58219        29.07100         2.13259
O         33.83947        21.49093         1.84500
H         34.72825        21.09072         2.00674
O         26.79626        46.61698        -0.72532
H         26.02584        47.14695        -1.02016
O         33.18923        28.30937        -1.70060
H         32.38888        28.05242        -2.22675
O         30.02740        40.08212         1.67132
H         30.67759        39.41613         2.06024
O         38.61746        53.73574         3.27550
H         39.31630        54.04542         3.90910
O         43.72747        18.08858        -0.09863
H         44.36372        17.34819        -0.00586
O         58.41099        24.60441         0.00077
H         58.60533        25.54235        -0.23334
H         23.04586        26.06730         4.48110
H         20.90220        27.21074         3.86310
H         20.68703        28.37336         1.70743
H         20.42329        29.13193        -0.19780
H         20.52945        31.52900        -0.52178
H         20.72192        33.35505         0.08900
H         20.76687        35.73777         0.20847
H         20.71239        37.63330         0.08436
H         20.76449        40.00508         0.52050
H         20.76224        41.92153         0.68677
H         20.86297        44.19117         1.53854
H         21.31646        45.81966         3.20074
H         23.52821        49.50700         3.16739
H         21.56685        48.20051         3.82711
H         25.30846        23.49267         3.69325
H         25.15330        50.44898         2.92504
H         26.81734        21.81232         2.68790
H         27.15059        51.73533         2.45258
H         29.98231        19.13688         1.17574
H         28.11445        20.56935         1.92575
H         30.20562        54.19702         0.37033
H         28.54873        52.88370         1.51784
H         32.39021        18.69408        -2.27144
H         31.90115        55.02969         0.41084
H         34.46074        18.67255        -3.63100
H         34.01918        56.11662         0.87510
H         38.32339        17.65979        -5.11105
H         36.15502        18.55315        -4.48738
H         37.72325        57.69115         2.55306
H         35.62430        56.72906         1.79319
H         39.87450        16.56776        -5.27104
H         39.50652        58.51769         2.58639
H         44.00808        15.93289        -4.30777
H         41.98962        15.34309        -5.59199
H         43.46259        58.08399         4.21758
H         41.53104        59.49400         3.61200
H         45.47555        16.24862        -3.09793
H         45.12868        57.40248         3.33790
H         47.44063        16.83186        -1.81663
H         47.23415        56.41844         2.63673
H         50.83422        17.89755         0.87457
H         49.06296        17.41631        -0.81860
H         50.16438        55.39491        -0.50593
H         48.79089        55.89316         1.48430
H         53.21180        19.20133         2.88094
H         52.62809        54.09438        -2.27529
H         55.26854        20.54405         2.67079
H         54.80379        52.92117        -2.42250
H         58.85308        22.55722         1.73485
H         56.79602        21.38579         2.14000
H         58.50736        50.76891        -0.92823
H         56.49903        52.01006        -1.49714
H         59.41058        23.74658         3.75110
H         60.21168        49.82653        -1.20339
H         61.03715        25.10271         5.04127
H         61.46987        27.47952         4.47091
H         62.38435        29.15569         2.20756
H         62.38812        31.42413         1.41412
H         62.34243        33.28719         0.75572
H         62.33433        35.60837        -0.01684
H         62.25235        37.56693         0.26663
H         62.28858        39.92845        -0.33197
H         62.28808        41.84431        -0.16061
H         62.15401        44.23497         0.07515
H         62.29205        46.13015        -0.49714
H         62.29731        48.57893        -0.79022
