         404
 CSIRO Nanostructure Databank - Neutral Graphene Oxide Data Set
C          1.20762         3.43760         0.69212
C         -0.00401         4.15509         0.82687
C          1.18362         6.31509         1.04407
C         -0.04119         5.52786         0.90161
C          1.13110         7.84416         0.94221
C          0.03267         8.38069         0.04988
C          1.18724        10.52040        -0.01381
C          0.03818         9.68131        -0.31506
C          1.19005        11.91393        -0.06085
C          0.06312        12.66070        -0.54390
C          1.22088        14.81366        -0.30570
C          0.08244        14.02085        -0.69232
C          1.23075        16.25352        -0.40440
C          0.06483        16.98903        -0.75864
C          1.22467        19.11736        -0.44334
C          0.05715        18.36602        -0.75768
C          1.20209        20.55607        -0.32769
C         -0.01154        21.28977        -0.43362
C          1.15412        23.40686        -0.06979
C         -0.03051        22.66103        -0.31856
C          1.12242        24.83889        -0.06366
C          0.02642        25.58021        -0.54464
C          1.15064        27.73157        -0.14004
C          0.01886        26.97004        -0.51734
C          1.10161        29.16589        -0.11936
C         -0.05788        29.92034        -0.29629
C          1.09161        32.08436        -0.04972
C         -0.04545        31.33283        -0.34073
C          1.14307        33.52316        -0.07552
C         -0.03518        34.28811        -0.26153
C          1.24014        36.35018        -0.42698
C          0.00526        35.66405        -0.40847
C          1.29748        37.76352        -0.65586
C          3.63353         3.42143         0.26983
C          2.43697         4.09948         0.58367
C          3.72542         6.27244         0.46878
C          2.50264         5.55133         0.84929
C          3.78362         7.75579         0.75610
C          2.46204         8.47630         0.53553
C          3.65573        10.56271        -0.22629
C          2.43681         9.79796         0.20870
C          3.73058        11.93664         0.41230
C          2.38016        12.68338         0.41423
C          3.39897        14.97692         0.71581
C          2.32226        14.16645         0.29213
C          3.60423        16.30446         0.29470
C          2.42761        16.98809        -0.14529
C          3.65854        19.12287         0.03326
C          2.43285        18.41622        -0.20010
C          3.64843        20.54970         0.03341
C          2.40681        21.26192        -0.07284
C          3.61359        23.38427         0.28766
C          2.39269        22.69113         0.08110
C          3.60685        24.80903         0.62755
C          2.27210        25.58897         0.44626
C          3.58401        27.69696         0.43796
C          2.36171        27.04372         0.23373
C          3.65920        29.16082         0.25781
C          2.37645        29.89919         0.00924
C          3.60375        32.07279         0.58193
C          2.30193        31.34680         0.36542
C          3.62954        33.50993         0.25395
C          2.40778        34.20299         0.00760
C          3.69725        36.29468        -0.28745
C          2.44836        35.61648        -0.22728
C          3.73380        37.70609        -0.55672
C          2.49696        38.41792        -0.72213
C          6.07254         3.40900        -0.00514
C          4.85668         4.10776         0.11823
C          6.12190         6.25463        -0.11485
C          4.86869         5.56630         0.15023
C          6.13429         7.68131        -0.21513
C          4.95096         8.42630         0.05944
C          6.12920        10.50169        -0.52878
C          4.94383         9.79767        -0.15318
C          6.13845        11.96271        -0.40042
C          5.04089        12.60616         0.22367
C          6.24225        14.78385         0.16658
C          5.22209        13.93345         0.64098
C          6.12807        16.22646         0.26352
C          4.91038        16.94952         0.31977
C          6.08501        19.15551         0.18715
C          4.89145        18.40903         0.19658
C          6.09960        20.57543         0.12068
C          4.87113        21.27927         0.11792
C          6.08696        23.44318         0.28585
C          4.86516        22.71520         0.20903
C          6.08671        24.87771         0.44054
C          4.85531        25.57267         0.57616
C          6.05682        27.71179         0.74673
C          4.82268        26.98802         0.62859
C          6.05214        29.14048         0.87170
C          4.87514        29.88893         0.70243
C          6.07645        32.04901         0.69040
C          4.88126        31.31770         0.65010
C          6.10713        33.45411         0.40082
C          4.87347        34.16872         0.17321
C          6.15902        36.24784        -0.20102
C          4.91280        35.57489        -0.10830
C          6.18584        37.65205        -0.50928
C          4.96408        38.35683        -0.67205
C          8.53343         3.38842        -0.04208
C          7.31365         4.08264        -0.11133
C          8.54647         6.21282        -0.50937
C          7.31463         5.52618        -0.25927
C          8.51894         7.59287        -0.81359
C          7.31660         8.35399        -0.65924
C          8.49629        10.51870        -1.27546
C          7.29378         9.77898        -0.81874
C          8.48956        12.03119        -1.22309
C          7.32112        12.71992        -0.63060
C          8.62450        14.85410        -0.57325
C          7.38044        14.11890        -0.39928
C          8.64134        16.28259        -0.34739
C          7.41518        16.95658         0.16715
C          8.51706        19.21698        -0.38903
C          7.37853        18.45442         0.19867
C          8.57187        20.66110        -0.10594
C          7.34169        21.32019         0.10729
C          8.57453        23.43525         0.18797
C          7.33686        22.74237         0.19491
C          8.62084        24.94292         0.18895
C          7.30468        25.60285         0.52977
C          8.55016        27.69047         1.00393
C          7.29364        26.99091         0.77757
C          8.59073        29.07676         1.06530
C          7.31766        29.82912         1.16888
C          8.59595        32.05240         0.79866
C          7.32935        31.36633         1.04537
C          8.59640        33.42858         0.52498
C          7.34663        34.13880         0.33118
C          8.61993        36.21698        -0.11854
C          7.38028        35.53464         0.00647
C          8.63963        37.61239        -0.46444
C          7.42298        38.30732        -0.64870
C         10.99439         3.40388         0.18498
C          9.77720         4.07348        -0.06942
C         11.02114         6.15812        -0.31800
C          9.79082         5.48713        -0.34654
C         11.05863         7.57994        -0.73591
C          9.78420         8.28210        -1.10963
C         11.06080        10.52250        -0.99710
C          9.81004         9.77576        -1.27694
C         11.09792        11.98602        -1.25886
C          9.80613        12.77330        -1.30353
C         11.07185        14.89867        -0.83174
C          9.81750        14.18632        -0.85341
C         11.05497        16.35156        -0.83060
C          9.80045        17.01409        -0.58919
C         11.01939        19.28243        -0.73368
C          9.77342        18.49377        -0.71380
C         11.03820        20.65050        -0.46865
C          9.79892        21.34920        -0.14566
C         11.07036        23.47058         0.19711
C          9.80066        22.75414         0.08955
C         11.09292        24.80162         0.60268
C          9.77106        25.39830         1.08984
C         11.10501        27.65631         1.25992
C          9.78632        26.91232         1.25207
C         11.04863        29.12135         1.10873
C          9.84853        29.79884         1.08198
C         11.05808        32.04854         1.21891
C          9.87525        31.26741         0.67241
C         11.06895        33.51905         0.94664
C          9.83007        34.16090         0.46715
C         11.09959        36.24036         0.07373
C          9.85285        35.53131         0.13915
C         11.10147        37.60575        -0.37568
C          9.87698        38.26974        -0.62133
C         13.42100         3.32355         0.59569
C         12.24984         4.05272         0.17111
C         13.42621         6.28975         0.06880
C         12.25330         5.48065        -0.08226
C         13.33470         7.71966         0.36756
C         12.12214         8.44990        -0.15994
C         13.33074        10.61029         0.05143
C         12.17724         9.89949        -0.47890
C         13.43850        12.09385        -0.05608
C         12.33262        12.73292        -0.84550
C         13.54892        14.87584        -1.03787
C         12.27097        14.21039        -0.78394
C         13.50185        16.40378        -1.27900
C         12.22949        17.07721        -1.01677
C         13.54039        19.30146        -1.23226
C         12.23530        18.54980        -1.11549
C         13.55205        20.82453        -1.06914
C         12.27176        21.40664        -0.48041
C         13.56025        23.44324         0.06780
C         12.29304        22.75246        -0.10408
C         13.56066        24.85306         0.38905
C         12.33503        25.54409         0.64744
C         13.56769        27.69082         0.73498
C         12.35979        26.94592         0.89274
C         13.59620        29.11727         0.87740
C         12.35132        29.82501         1.21738
C         13.61443        32.04617         0.96707
C         12.37119        31.32442         1.29782
C         13.56663        33.49155         0.88810
C         12.36966        34.20991         0.79544
C         13.54431        36.32226         0.23399
C         12.34256        35.60485         0.40681
C         13.55587        37.63775        -0.34341
C         12.32455        38.27448        -0.60180
C         15.98749         3.42741         0.86422
C         14.72352         3.72149         0.29213
C         15.91230         6.47004         0.34710
C         14.71905         5.81538        -0.08949
C         15.83988         7.90180         0.61088
C         14.57337         8.48955         0.57929
C         16.20762        11.02346         0.89986
C         14.29275         9.89451         0.74599
C         16.11747        12.34504         0.33338
C         14.77569        12.94008         0.05945
C         16.00636        14.95744        -0.85130
C         14.80853        14.25182        -0.62806
C         15.96624        16.36675        -1.10227
C         14.77113        17.12998        -1.12058
C         16.02906        19.23260        -0.82113
C         14.79297        18.53662        -1.06734
C         16.00258        20.63998        -0.44198
C         14.80575        21.36062        -0.40572
C         16.02358        23.36804         0.52643
C         14.76708        22.72795        -0.00150
C         16.04020        24.86664         0.35166
C         14.79646        25.57152         0.41164
C         16.02745        27.72593         0.41665
C         14.79899        26.99513         0.50200
C         16.00892        29.14169         0.51202
C         14.79593        29.85583         0.77499
C         16.06793        32.04104         0.70530
C         14.80090        31.32320         0.81743
C         16.11465        33.49468         0.76050
C         14.84402        34.21698         0.96053
C         16.06494        36.36209         0.21414
C         14.82147        35.74067         0.63717
C         16.03443        37.64583        -0.37845
C         14.78466        38.28306        -0.61407
C         18.40416         3.64131         0.96887
C         17.11639         4.26711         0.68638
C         18.37705         6.42705         0.34653
C         17.09263         5.68989         0.46076
C         18.42125         7.88923         0.69359
C         17.12325         8.65515         0.85901
C         18.55320        10.77430         0.50435
C         17.23521        10.13539         0.66768
C         18.57328        12.28651         0.25551
C         17.29565        12.96571        -0.06161
C         18.49320        14.95212        -0.90588
C         17.29998        14.29671        -0.64851
C         18.51331        16.35801        -1.34024
C         17.21004        17.11591        -1.30949
C         18.50905        19.11270        -0.42449
C         17.22531        18.54305        -0.95987
C         18.51081        20.62134        -0.39934
C         17.27741        21.31633        -0.22557
C         18.51554        23.40336         0.12353
C         17.28813        22.69185         0.06155
C         18.51428        24.82523         0.32909
C         17.25529        25.55471         0.35698
C         18.51665        27.66337         0.40328
C         17.27699        26.99695         0.34584
C         18.58264        29.12129         0.25974
C         17.24337        29.90070         0.31154
C         18.53900        32.05387         0.75571
C         17.25697        31.33908         0.62401
C         18.55762        33.50202         0.48236
C         17.30335        34.19560         0.56426
C         18.56065        36.30435        -0.05392
C         17.35487        35.71562         0.63795
C         18.50005        37.63344        -0.56876
C         17.25558        38.30111        -0.69527
C         19.59922         4.25802         0.82355
C         20.91463         6.44555         0.64390
C         19.68037         5.66985         0.41987
C         20.92556         7.79348         0.50130
C         19.71626         8.59362         0.40998
C         20.96542        10.68133        -0.15151
C         19.76322         9.96601         0.23682
C         21.02409        12.02276        -0.35008
C         19.87529        12.92807        -0.14217
C         20.97625        14.98822        -1.35368
C         19.82744        14.33669        -0.66903
C         20.97732        16.32989        -1.53895
C         19.79123        17.11547        -1.23660
C         20.98094        19.25219        -0.90532
C         19.77471        18.46752        -0.96667
C         20.96579        20.57160        -0.56550
C         19.73529        21.30021        -0.32316
C         20.96624        23.43698         0.07174
C         19.74924        22.71076        -0.06159
C         20.95880        24.78203         0.34485
C         19.73648        25.50722         0.44700
C         20.92735        27.65375         0.84683
C         19.74657        26.95246         0.58555
C         20.94993        29.06505         0.91062
C         19.83337        29.80592         0.59582
C         21.02035        32.03339         0.23442
C         19.85318        31.28716         0.69876
C         20.97689        33.38655         0.08257
C         19.77030        34.15686         0.23068
C         20.93477        36.23868        -0.57223
C         19.77061        35.58566        -0.10569
C         20.89334        37.56894        -1.00125
C         19.69046        38.25871        -1.02867
O          7.71247        17.72479         1.42001
O         12.47253        30.52644         2.52367
O         17.84779        16.70187        -2.60729
O         14.86987        35.21418         2.02559
O          8.95901        12.60631        -2.48370
O         20.15278        14.07353         0.75023
O         10.68718         7.71432        -2.13503
O         12.79571        18.94692        -2.45102
O          9.10024        10.08022        -2.52728
O          7.27275        30.68079         2.35710
O         13.76798        12.85434         1.13267
O          2.99742        12.13398         1.63227
O         19.29088        31.71161         1.99183
O         17.87198         8.15055         2.02686
O         18.71890        11.75449         1.60458
O         12.14775        12.30866        -2.24239
O          2.74220        25.14805         1.75662
O         19.07014         6.04054        -0.88275
O          3.28282        29.61348        -1.12026
O          2.72457        31.69986         1.72187
O         15.09982        10.59705         1.62273
O         10.83139        32.93984         2.32116
O         17.93056        29.62461        -0.96389
O         10.45363        27.23550         2.51968
O          4.34044        14.43931         1.60291
O         13.54782        15.46531        -2.38681
O         12.25029         8.14216         1.26970
O         14.85073         4.62108        -0.79711
O          2.01113         5.92156         2.20436
O          8.80459        18.89996        -1.79140
O          0.80888         8.31616         2.28226
H          1.37813         7.81502         2.90684
O         18.49737        18.71804         1.00663
H         19.31723        19.07355         1.41241
O          8.96608        25.38568        -1.16016
H          8.31961        24.99352        -1.78387
O          9.51703        24.82936         2.39256
H          9.99918        25.38642         3.04631
O         17.51633        36.03084         2.06943
H         16.67223        35.75907         2.50706
O         13.62099        21.37997        -2.42091
H         13.10533        20.76441        -2.99490
O          3.47715        10.85821        -1.65553
H          3.55330        10.01740        -2.15395
O          4.07068         7.85419         2.19130
H          3.44875         7.23141         2.63894
O         15.98521        23.14536         1.99090
H         16.79147        23.55645         2.36980
O         10.16370        31.21493        -0.77984
H          9.41674        30.76090        -1.22494
H          1.17413         2.34669         0.56098
H         -0.95011         3.59624         0.78789
H         -1.00869         6.04564         0.85052
H         -0.83645         7.75046        -0.18618
H         -0.81928        10.10214        -0.86054
H         -0.83738        12.11154        -0.85261
H         -0.80072        14.51684        -1.11622
H         -0.86648        16.45726        -0.99464
H         -0.87968        18.88475        -0.99989
H         -0.95927        20.76293        -0.60460
H         -0.99315        23.18325        -0.39860
H         -0.86158        25.06143        -0.93004
H         -0.88758        27.49005        -0.85461
H         -1.02263        29.41566        -0.44360
H         -0.98691        31.83984        -0.59356
H         -1.00982        33.78224        -0.28610
H         -0.92748        36.22998        -0.54445
H          0.35480        38.31342        -0.79141
H          3.61751         2.32531         0.17573
H          2.53287        39.50057        -0.91122
H          6.06364         2.30986         0.04447
H          4.99296        39.43342        -0.89630
H          8.52415         2.29852         0.10833
H          7.44564        39.37881        -0.89574
H         10.96140         2.32579         0.40346
H          9.89269        39.32418        -0.93307
H         13.26607         2.44931         1.24620
H         12.31540        39.30172        -0.99304
H         16.13046         2.48282         1.41193
H         14.77431        39.29875        -1.03429
H         18.38178         2.58794         1.28705
H         17.22789        39.31898        -1.10976
H         20.53198         3.73023         1.07211
H         21.84918         5.89988         0.84110
H         21.88520         8.32382         0.57919
H         21.87944        10.09487        -0.32204
H         21.98557        12.47896        -0.62707
H         21.88155        14.39866        -1.55750
H         21.88033        16.83075        -1.91841
H         21.93948        18.77186        -1.14774
H         21.92110        21.11107        -0.53383
H         21.93172        22.92689        -0.03674
H         21.91801        25.30740         0.43604
H         21.86269        27.11465         1.04180
H         21.88568        29.57256         1.18357
H         21.92568        31.47728        -0.04892
H         21.89391        33.89365        -0.24430
H         21.89823        35.71435        -0.60133
H         21.81613        38.05584        -1.34603
H         19.64397        39.28862        -1.40978
