         576
 CSIRO Nanostructure Databank - Neutral Graphene Oxide Data Set
C          6.11000        19.38066         1.97450
C          6.06692        20.70563         1.62593
C          4.98815        21.57208         2.07678
C          6.33870        23.54857         1.41856
C          5.07504        22.90659         1.92700
C          6.09862        24.88863         0.79291
C          8.61569        15.14002         2.37194
C          8.47764        16.43951         1.79285
C          7.35339        17.23987         2.10680
C          8.16403        19.01201         0.64267
C          7.21155        18.53011         1.58047
C          7.97277        20.34650         0.02964
C          7.07735        21.28452         0.74271
C          8.14783        23.24868        -0.38461
C          7.15896        22.63158         0.53633
C          8.28754        24.73207        -0.32270
C          7.09317        25.49287         0.07157
C          8.15808        27.59689        -0.60282
C          7.03842        26.90478        -0.19304
C          8.18641        29.01939        -0.53210
C         11.12299        10.92750         2.68884
C         11.11026        12.31726         2.44146
C          9.91939        13.07337         2.68600
C         10.86062        14.89399         1.31538
C          9.76382        14.36875         2.17719
C         10.71895        16.21068         0.65775
C          9.47368        16.96295         0.91734
C         10.27218        18.68237        -0.65153
C          9.29016        18.22585         0.32472
C         10.13736        19.93633        -1.21351
C          9.06425        20.89441        -0.87323
C         10.56153        23.12429        -1.42346
C          9.22775        22.40707        -1.06763
C         10.60441        24.62821        -1.27015
C          9.38376        25.36379        -0.82017
C         10.66195        27.48748        -0.69051
C          9.36577        26.84258        -1.12831
C         10.65674        28.95893        -0.44205
C          9.38981        29.73225        -0.47890
C         10.68438        31.80830        -0.11832
C          9.45108        31.12437        -0.28318
C         10.71849        33.17305         0.20679
C         13.48556         6.55795         2.42073
C         13.48059         7.99798         2.50471
C         12.33000         8.74070         2.66673
C         13.48142        10.87113         2.13456
C         12.30555        10.18288         2.54184
C         13.44410        12.22261         1.71179
C         12.27173        12.95420         1.88917
C         13.41638        15.11898         0.98479
C         12.23670        14.46522         1.74530
C         13.26332        16.36157         0.14930
C         11.89954        16.89804         0.03395
C         13.34684        18.98754        -1.48754
C         11.47672        17.88476        -0.84483
C         13.26731        20.36199        -1.48066
C         12.04465        21.11399        -1.69628
C         13.14749        23.18438        -0.91672
C         11.89829        22.42812        -1.37158
C         13.14779        24.67407        -1.23413
C         11.91884        25.36238        -1.16776
C         13.12929        27.49877        -1.11241
C         11.92274        26.77283        -1.04030
C         13.09364        28.98813        -1.08811
C         11.90756        29.70975        -0.60956
C         13.18627        31.76718        -0.26725
C         11.92574        31.07195        -0.37190
C         13.19692        33.12292         0.34447
C         11.93159        33.89481         0.43899
C         13.16966        36.06011         0.80317
C         11.94099        35.26598         0.65505
C         13.20956        37.53381         0.64146
C         15.90640         6.48820         1.93586
C         14.63336         5.85341         2.18603
C         15.99927         7.94267         2.05297
C         14.79150         8.68337         2.49406
C         16.00977        10.92199         1.90127
C         14.76913        10.20057         2.31152
C         15.93483        12.18822         1.15357
C         14.57491        12.77842         0.86779
C         15.80467        14.84731         0.02740
C         14.65826        14.29140         0.78564
C         15.74098        16.22245        -0.32084
C         14.44579        16.93188        -0.37679
C         15.70460        18.94816        -1.17765
C         14.52424        18.26533        -1.01755
C         15.69783        20.32194        -1.83427
C         14.49107        21.12607        -1.40927
C         15.63852        23.26344        -1.68728
C         14.43067        22.48598        -1.34950
C         15.65778        24.71092        -1.42688
C         14.37495        25.40114        -1.32083
C         15.61845        27.58757        -1.47785
C         14.35130        26.82307        -1.31737
C         15.67690        29.00828        -1.09126
C         14.40722        29.76072        -1.05523
C         15.67216        31.79146        -0.25852
C         14.37567        31.10795        -0.47947
C         15.63180        33.29122        -0.47450
C         14.49127        33.87669         0.33741
C         15.66012        36.11505         0.02296
C         14.47866        35.35083         0.58528
C         15.68758        37.55361         0.50572
C         14.38778        38.20996         0.59516
C         18.27527         6.35633         1.27387
C         17.03470         5.73716         1.63733
C         18.20975         7.82751         0.93167
C         17.15635         8.59678         1.71103
C         18.38544        10.71573         1.04861
C         17.25898        10.07342         1.73552
C         18.32114        12.02875         0.64643
C         17.06127        12.76194         0.59028
C         18.17984        14.73571        -0.54843
C         17.01510        14.10712        -0.02433
C         18.14797        16.11657        -0.85673
C         16.95836        16.85629        -0.70202
C         18.13561        18.88871        -1.71501
C         17.03062        18.36404        -0.78063
C         18.17564        20.39469        -1.70026
C         17.00251        21.06556        -1.69293
C         18.20266        23.28033        -1.62023
C         16.95733        22.53488        -1.88187
C         18.14104        24.63037        -1.33539
C         16.88881        25.35364        -1.35565
C         18.16707        27.54438        -1.00308
C         16.94829        26.82948        -1.43701
C         18.13298        28.91977        -0.83293
C         16.88869        29.63654        -0.89232
C         18.11477        31.91942        -1.06678
C         16.94525        31.08214        -0.54367
C         18.13749        33.28214        -0.38750
C         16.96206        33.93505        -0.15515
C         18.14351        36.15379        -0.08658
C         16.93957        35.34252         0.42721
C         18.17107        37.52997         0.56964
C         16.87928        38.19872         0.69696
C         20.70985         6.28058         0.78891
C         19.44827         5.64623         1.10382
C         20.69879         7.74151         0.68135
C         19.56863         8.47401         0.88807
C         20.89277        10.65927         0.81307
C         19.65315         9.92839         1.27324
C         20.84536        12.08698         0.39055
C         19.51682        12.64110         0.01457
C         20.75714        14.67297        -0.88809
C         19.46106        13.98116        -0.65736
C         20.69473        15.98367        -1.50727
C         19.36978        16.76884        -1.43837
C         20.70068        18.92938        -1.64645
C         19.47243        18.22467        -1.47772
C         20.70722        20.33178        -1.80488
C         19.44355        21.09872        -2.11969
C         20.65177        23.24468        -1.61471
C         19.47150        22.55864        -1.68708
C         20.65101        24.75746        -1.53873
C         19.40571        25.28820        -0.80890
C         20.56349        27.45742        -0.47373
C         19.38766        26.80341        -0.77797
C         20.62611        28.91164        -0.37457
C         19.32710        29.71300        -0.33906
C         20.66349        31.84387        -0.54908
C         19.45950        31.09036        -1.08083
C         20.66382        33.22292        -0.26115
C         19.40897        33.97642        -0.17556
C         20.63272        36.13303         0.15153
C         19.40712        35.32121         0.10739
C         20.64803        37.38700         1.00355
C         19.33832        38.13992         0.91604
C         23.21340         6.18869         0.64158
C         21.90568         5.57374         0.78164
C         23.22448         7.61481         0.21963
C         21.95563         8.39913         0.24783
C         23.35730        10.58342         0.52003
C         22.02098         9.91687         0.12388
C         23.30526        12.01084        -0.02667
C         22.07995        12.69457        -0.15978
C         23.25238        14.66129        -1.01729
C         22.01335        14.01736        -0.69359
C         23.27368        16.01255        -1.60643
C         21.96163        16.75098        -1.77559
C         23.21454        18.89145        -1.74391
C         21.97975        18.22247        -1.70364
C         23.24929        20.34726        -1.76595
C         21.97244        21.04146        -2.00527
C         23.20472        23.25563        -1.48716
C         21.95535        22.58455        -1.87021
C         23.13373        24.64098        -1.00325
C         21.91653        25.30315        -0.91079
C         23.08344        27.35632         0.04561
C         21.80075        26.63967        -0.29299
C         23.06663        28.86149         0.14441
C         21.80692        29.58423        -0.17897
C         23.07480        31.76332         0.17427
C         21.95383        31.05002        -0.60720
C         23.18326        33.23104        -0.23651
C         21.87466        33.93744        -0.05359
C         23.18763        36.09327         0.34620
C         21.94764        35.38771         0.00333
C         23.15575        37.53043         0.59937
C         21.91525        38.17811         0.79875
C         25.71400         6.29611         0.92423
C         24.40086         5.53612         0.83019
C         25.71996         7.52126        -0.03356
C         24.48768         8.36263         0.17003
C         25.72597        10.40182        -0.32428
C         24.54471         9.75293         0.06514
C         25.71029        11.83701        -0.61100
C         24.49670        12.64907        -0.40100
C         25.73361        14.73271        -1.04263
C         24.48337        14.01747        -0.80374
C         25.76821        16.04835        -1.49041
C         24.53230        16.78681        -1.60566
C         25.74404        18.93314        -1.88405
C         24.46949        18.16454        -1.77233
C         25.70160        20.33863        -1.24810
C         24.42097        21.08338        -1.61484
C         25.68786        23.25729        -1.41342
C         24.39766        22.52287        -1.51464
C         25.67411        24.68866        -0.93888
C         24.36653        25.33647        -0.63135
C         25.60280        27.37659         0.12361
C         24.34939        26.64630        -0.21420
C         25.61401        28.84816        -0.15484
C         24.36915        29.60908         0.15518
C         25.59649        31.76315        -0.06391
C         24.41880        31.08558         0.00878
C         25.66591        33.28023        -0.14495
C         24.38899        33.88503         0.45740
C         25.63444        36.04569         0.53083
C         24.40460        35.39516         0.37574
C         25.70040        37.54462         0.41356
C         24.38515        38.20905         0.71565
C         28.16523         6.15552         0.46922
C         26.97304         5.50406         0.63639
C         28.19963         7.66352         0.64618
C         26.98094         8.30962         0.03407
C         28.19364        10.47453        -0.28573
C         26.98216         9.63394        -0.67839
C         28.28332        11.89799        -0.70276
C         26.99799        12.59169        -0.88660
C         28.16361        14.77460        -0.59445
C         26.98274        14.06118        -0.74858
C         28.35230        15.87945        -1.60673
C         27.05431        16.59486        -2.14249
C         28.28136        18.89921        -1.60923
C         27.03569        18.16527        -2.01659
C         28.25131        20.37607        -1.39577
C         26.97198        21.14878        -1.44723
C         28.25667        23.34764        -1.31757
C         26.96980        22.50781        -1.35691
C         28.14380        24.65167        -0.53450
C         26.93310        25.28374        -0.41417
C         28.16933        27.47241         0.00653
C         26.91304        26.68131         0.05727
C         28.17051        28.85161         0.00715
C         26.91243        29.57619        -0.29911
C         28.16577        31.77573         0.13011
C         26.89890        31.07006        -0.22712
C         28.07968        33.09456         0.87892
C         26.86840        33.90578         0.52372
C         28.06805        35.97358         1.07867
C         26.85122        35.28437         0.71552
C         28.02071        37.38673         1.38833
C         26.86408        38.11555         1.18187
C         30.60706         6.15240        -0.00699
C         29.41703         5.47733         0.20924
C         30.61176         7.60896        -0.08064
C         29.46284         8.29884         0.13181
C         30.73735        10.48562        -0.04922
C         29.45627         9.76563         0.05957
C         30.63187        11.98560         0.07824
C         29.46244        12.58177        -0.72715
C         30.76006        14.74959        -0.71991
C         29.44894        14.05960        -1.00792
C         30.82194        16.10149        -1.00643
C         29.60172        16.73241        -1.56990
C         30.86732        18.96725        -1.62710
C         29.59086        18.20063        -1.82449
C         30.82227        20.46255        -1.53339
C         29.50297        21.21146        -1.68601
C         30.69774        23.17160        -0.45209
C         29.38510        22.44191        -0.75703
C         30.65128        24.63041        -0.17117
C         29.36936        25.36256        -0.20558
C         30.62633        27.45299         0.37463
C         29.40223        26.73045         0.06170
C         30.60698        28.85249         0.51014
C         29.39289        29.59640         0.26242
C         30.69735        31.74266         0.30897
C         29.39701        30.98129         0.34572
C         30.61938        33.18318         0.81770
C         29.37033        33.88398         0.83741
C         30.54113        36.06791         1.15812
C         29.30114        35.27355         1.05378
C         30.45370        37.39928         1.80017
C         29.22941        38.01133         1.90579
C         33.05609         6.15739        -0.30980
C         31.87447         5.47647        -0.17860
C         33.12847         7.59794        -0.33294
C         31.84541         8.35116        -0.55643
C         33.19789        10.42020         0.40338
C         31.90217         9.79741        -0.10394
C         33.15489        11.94625         0.26776
C         31.95368        12.66244        -0.10914
C         33.15504        14.82559         0.00861
C         31.93954        14.04174        -0.28747
C         33.26119        16.21582        -0.46977
C         32.02750        16.89214        -0.82928
C         33.26643        19.02709        -0.86102
C         32.04872        18.24627        -1.11035
C         33.30186        20.48059        -1.22438
C         32.01975        21.18895        -1.05404
C         33.23826        23.20009        -0.37943
C         32.00773        22.51842        -0.73118
C         33.20020        24.65045        -0.07077
C         31.92446        25.40787        -0.12812
C         33.05527        27.37163         0.91455
C         31.86939        26.75386         0.47907
C         32.96192        28.76564         1.48867
C         31.80766        29.56604         0.90210
C         33.01525        31.66700         1.39661
C         31.83433        30.93494         0.89100
C         33.09266        33.13468         1.13335
C         31.81005        33.85818         1.06241
C         33.03850        35.95864         1.82141
C         31.86511        35.32400         1.16705
C         32.88059        37.32835         2.27419
C         31.68868        37.99455         2.26352
C         34.32107         8.28249        -0.34415
C         35.68219        10.28691        -0.38568
C         34.44386         9.71386        -0.16099
C         36.06089        11.61245         0.05649
C         34.23904        12.67391         0.67352
C         35.78632        14.77032         0.45947
C         34.38085        14.13013         0.52279
C         35.77390        16.02223        -0.48725
C         34.49020        16.82732        -0.47583
C         35.86558        18.97448        -0.70322
C         34.54578        18.29131        -0.54839
C         35.87711        20.47150        -0.79409
C         34.58768        21.22969        -0.97374
C         35.67481        23.24373         0.11683
C         34.47871        22.59094        -0.42531
C         35.59857        24.50386         0.65618
C         34.26375        25.17194         0.86763
C         35.51208        27.34650         1.26187
C         34.28786        26.67919         0.95952
C         35.48830        28.79781         1.44931
C         34.29621        29.47875         1.46820
C         35.56005        31.67681         1.83108
C         34.27874        30.93036         1.71732
C         35.53623        33.05216         1.96037
C         34.35485        33.85705         1.56794
C         34.19983        35.25757         2.00913
C         36.94055        12.53142        -0.45238
C         38.15994        14.63674        -0.16320
C         36.99179        13.93189        -0.02913
C         38.22787        16.08936        -0.00742
C         37.02459        16.82918        -0.18885
C         38.25266        18.94608         0.00282
C         37.06438        18.23806        -0.22481
C         38.35632        20.43445        -0.29892
C         37.04350        21.19268        -0.25270
C         38.14181        23.21304         0.60659
C         36.95089        22.50631         0.14124
C         38.07410        24.51701         1.05849
C         36.74401        25.13460         1.39647
C         37.95667        27.34912         1.59377
C         36.72793        26.64953         1.34715
C         37.94710        28.74712         1.74082
C         36.74739        29.50641         1.68689
C         36.75495        30.89299         1.88657
C         39.42543        16.78038         0.19502
C         40.64716        18.90769         0.55020
C         39.46143        18.21157         0.26126
C         40.58447        20.32396         1.04186
C         39.43760        21.12195         0.48379
C         40.58409        23.19047         1.15238
C         39.39160        22.47793         0.71243
C         40.52209        24.53740         1.43020
C         39.26814        25.24755         1.41448
C         39.18859        26.61251         1.67976
C         41.87056        21.11000         1.00649
C         41.84333        22.45398         1.13705
O         31.17595        19.78942        -2.80809
O         29.72911        17.30184        -2.94532
O         19.79085        16.06977        -2.66078
O         25.77665        24.37181        -2.38920
O          7.80206        20.36950        -1.42626
O          8.08485        22.88022        -1.81617
O         16.99756        10.82923         2.97073
O         14.09858        33.13520         1.51764
O         10.97968        20.37061        -2.22734
O         21.28628        36.17214        -1.11530
O         14.92599         9.58431         3.63189
O         22.40614         7.78973        -1.02097
O         21.99640        21.93229        -3.19275
O         36.15021        19.62781        -1.98667
O         16.53166        31.34745         0.83738
O         10.67901        27.97227         0.68824
O         19.36662        12.72259        -1.44061
O         27.72581        31.75411        -1.27001
O         33.74991        18.90080         0.53927
O         28.56646        10.33246         1.12190
O         16.37447        27.30694        -2.69778
O         21.13660        11.73080         1.80089
O         34.04619        33.59273         0.12825
O         32.84615        25.40356        -1.28203
O         18.07386        36.29917        -1.47452
O         26.41316        18.81120        -3.18148
O         14.08625        35.66146         1.93417
O         35.34957        12.03236         1.20324
O         12.26063        18.25197        -1.92950
O         26.16556        29.09946        -1.48448
O         22.28991        26.70969         1.09561
O         22.63179        16.14641        -2.92929
O         30.68040        23.64491         0.95366
O         10.42730        23.98951        -2.59482
O         28.99564        14.64698        -2.40313
O         33.32240        31.31711         2.80530
O         26.21306        26.92296         1.36833
O         34.07417        21.00689        -2.33495
O         13.64879        29.59927        -2.30538
O         30.38051        12.36814         1.41450
O         33.50556        14.82810         1.47862
O         28.28154        19.45129        -0.24078
O         16.16850        22.94268        -3.04617
O         23.71801        29.25285         1.42979
O         26.21731        12.10363        -2.01939
O         14.52206        15.12511         1.97852
O         31.38818        36.02698        -0.03347
O         10.52049        14.90482        -0.09287
O         38.78569        20.48368        -1.70888
H         38.01366        20.16745        -2.23967
O         31.00847        31.87757        -1.12302
H         30.21146        32.23099        -1.57433
O         17.03058        35.27395         1.85569
H         16.19598        34.90634         2.22120
O         35.88985        15.49437        -1.84211
H         35.99981        16.24808        -2.45959
O         15.30294        33.50598        -1.86671
H         16.03604        33.13377        -2.41057
O         13.12310        23.12982         0.55789
H         13.88100        23.65302         0.89441
O         20.59307        25.25841        -2.89779
H         21.26349        24.78589        -3.43520
O         24.42756        33.60951         1.87547
H         23.69262        32.98728         2.11139
O         28.17894         7.89976         2.10653
H         28.26951         8.88062         2.22090
O         15.52528        36.13114        -1.39920
H         16.44389        36.31470        -1.76814
O          7.18557        23.80093         2.60467
H          6.69037        24.40591         3.19666
O         25.74036         6.77505         2.28884
H         26.63783         7.16675         2.46583
O         12.29864        14.97588         3.10994
H         13.24424        14.93312         3.38519
O         33.19963        10.11515         1.82577
H         32.47463        10.63378         2.23845
O         23.51551        10.62465         1.95142
H         22.80795        11.20610         2.32006
O         27.00703         9.40598        -2.13466
H         26.76758        10.27051        -2.55419
O         17.72052         7.89401        -0.46436
H         18.35131         7.38918        -1.02202
O         14.23095        12.40164        -0.50706
H         14.18087        11.42461        -0.56372
O         36.53249        24.80781         2.81942
H         35.55428        24.78598         2.96870
O         22.37549        30.93623        -2.00155
H         21.55318        30.74125        -2.52502
O         28.89968        21.93268         0.50045
H         29.27083        22.50665         1.21341
O         19.76136        30.73509        -2.45683
H         19.02429        31.09574        -3.01412
O         26.94719        16.27425        -3.52739
H         26.48421        17.01762        -3.97733
O         15.53320        20.11626        -3.26885
H         15.65344        20.99795        -3.69343
O         40.26945        20.15242         2.48847
H         41.06435        19.77236         2.91991
O         25.98204        37.82262        -1.02286
H         25.35367        37.28868        -1.55609
O         31.71390         8.43550        -2.02231
H         31.68975         7.51789        -2.36807
O          9.34703        26.95607        -2.58136
H          8.97689        26.12995        -2.95958
O         28.56477        23.81985        -2.64233
H         27.72562        24.16720        -3.02452
O         21.80945        10.21745        -1.27889
H         22.13973         9.44333        -1.79624
O         33.83777        24.71947         2.21401
H         33.08169        25.27889         2.49858
O         23.39952        33.35121        -1.65822
H         22.98353        32.57615        -2.11358
O         22.67404        31.70746         1.56777
H         22.88442        30.79262         1.89329
O         19.75787         9.82307         2.73102
H         19.88706        10.73363         3.08015
O         17.36898        18.84564         0.55663
H         16.72347        18.46370         1.18849
O         19.09790        30.05043         1.04771
H         18.97093        29.22749         1.56272
O         20.73876        36.88192         2.38794
H         20.51755        37.62012         2.99423
O         25.60389         6.99942        -1.39741
H         25.92433         7.71214        -2.00385
O         19.54530        24.83616         0.56807
H         18.86734        25.28024         1.11762
O         29.41004        21.60060        -3.05928
H         29.95169        20.96859        -3.58780
O         17.77412        18.47898        -3.05563
H         18.28972        19.02438        -3.68962
O         19.37019        21.11827        -3.58926
H         20.23679        21.47584        -3.90515
O         36.09679        15.20942         1.78677
H         35.24366        15.39324         2.24338
O         25.81700        33.66761        -1.53008
H         26.55333        33.12351        -1.89936
O         32.64693        28.59301         2.91342
H         32.71145        29.49443         3.31449
O         25.61440        20.11375         0.19091
H         26.52739        19.89960         0.50437
O         17.77289        32.22213        -2.46215
H         18.21732        33.06471        -2.70500
O         27.88825        32.67408         2.27984
H         27.60321        33.45868         2.79538
H          5.33211        18.96098         2.62917
H          4.10158        21.10682         2.53297
H          4.26331        23.56524         2.27241
H          5.21520        25.47069         1.09866
H          7.80626        14.75721         3.01125
H          6.59495        16.85129         2.80189
H          6.14951        27.46009         0.14470
H          7.23810        29.55576        -0.37070
H         10.20052        10.42989         3.02181
H          9.08903        12.59701         3.22846
H          8.51256        31.69512        -0.21367
H          9.76369        33.71120         0.31274
H         12.53110         6.02575         2.54651
H         11.36607         8.22211         2.78342
H         10.98234        35.80802         0.62138
H         12.25733        38.08560         0.64808
H         14.59235         4.75544         2.13066
H         14.37231        39.31144         0.58720
H         16.98054         4.63832         1.68322
H         16.87753        39.25391         1.01831
H         19.44551         4.55845         1.27776
H         19.32150        39.16497         1.32493
H         21.87276         4.49040         0.97824
H         21.91316        39.25482         1.03121
H         24.39681         4.47217         1.11735
H         24.38218        39.29073         0.91919
H         26.92708         4.40585         0.55711
H         26.84377        39.18527         1.44104
H         29.41311         4.37602         0.19689
H         29.15615        39.02490         2.32888
H         34.00064         5.59313        -0.35340
H         31.88398         4.37685        -0.14332
H         33.77458        37.83567         2.66694
H         31.64526        39.02395         2.64996
H         35.25902         7.70377        -0.38988
H         36.44595         9.67758        -0.89756
H         36.47080        33.59182         2.17923
H         35.03993        35.72759         2.54402
H         37.63359        12.22970        -1.25296
H         39.08652        14.10989        -0.43884
H         38.89620        29.27155         1.92889
H         37.71482        31.40472         2.05261
H         40.36224        16.22149         0.33756
H         41.57484        18.33650         0.71847
H         41.43803        25.08815         1.69343
H         40.10848        27.16744         1.91893
H         42.82692        20.56447         0.99756
H         42.78006        23.02734         1.21212
