         658
 CSIRO Nanostructure Databank - Neutral Graphene Oxide Data Set
C          5.85209        31.76192         0.15995
C          5.85143        33.04560         0.56809
C          8.29414        27.49455        -0.32268
C          8.28462        28.88315        -0.31411
C          7.06208        29.63338        -0.20969
C          8.33320        31.64545         0.37570
C          7.07506        30.97865         0.08298
C          8.35836        32.96867         0.77461
C          7.09346        33.76323         1.02402
C          8.38291        35.82986         0.32542
C          7.19133        35.14507         0.41053
C          8.46253        37.17531        -0.14270
C         10.64882        23.11282         0.10578
C         10.26656        24.29084        -0.45440
C          9.30982        25.32220        -0.11745
C         10.74737        27.37312        -0.73143
C          9.48027        26.68042        -0.41681
C         10.78156        28.90216        -0.71427
C          9.54102        29.59113        -0.21556
C         10.78007        31.48071         0.90052
C          9.56639        30.89765         0.21101
C         10.90897        32.98118         0.79292
C          9.63702        33.67404         0.98712
C         10.93360        35.82717         0.46289
C          9.64353        35.18808         0.77746
C         10.92271        37.14208        -0.00957
C          9.68565        37.85894        -0.23505
C         10.88098        40.01611        -0.49491
C          9.70173        39.26581        -0.48333
C         10.90598        41.42276        -0.58832
C         13.24053        19.21558         1.46464
C         13.20749        20.54271         0.73747
C         12.05712        21.04349         0.24807
C         13.14182        23.30929        -0.06682
C         11.91724        22.39968        -0.41156
C         13.21982        24.64854        -0.78280
C         12.10244        25.35649        -1.19183
C         13.20994        27.60689        -1.29279
C         11.94565        26.78681        -1.07893
C         13.22794        28.90886        -0.50889
C         12.06493        29.44961        -0.07789
C         13.40903        31.47957         0.78264
C         12.08527        30.73255         0.67356
C         13.37751        32.94546         0.78856
C         12.14661        33.66760         0.82107
C         13.39194        35.85183         0.68873
C         12.15929        35.12340         0.69537
C         13.43877        37.18994         0.27600
C         12.20348        37.81746        -0.22553
C         13.37623        40.08135         0.03108
C         12.18121        39.30452        -0.46950
C         13.39489        41.47396        -0.53411
C         12.11907        42.15592        -0.68361
C         13.29726        44.28176        -1.08544
C         12.10092        43.54747        -0.89828
C         13.32357        45.67315        -1.16446
C         15.73584        14.82038         1.63860
C         15.72034        16.30098         1.71269
C         14.52023        17.08792         1.47487
C         15.80664        19.16357         1.19073
C         14.56071        18.46245         1.37601
C         15.79325        20.63009         0.94820
C         14.46674        21.32599         0.71631
C         15.68028        23.24669        -0.27698
C         14.48334        22.60473        -0.00653
C         15.66451        24.63464        -0.70946
C         14.47842        25.33966        -0.79009
C         15.70954        27.55529        -1.01866
C         14.43542        26.84049        -0.70362
C         15.75683        28.91080        -0.85449
C         14.49148        29.72253        -0.69157
C         15.89377        31.64896         0.07661
C         14.71899        30.75509         0.42487
C         15.93004        32.98832         0.50063
C         14.66905        33.65163         0.93755
C         15.95704        35.95186         1.06746
C         14.65015        35.15955         1.05708
C         15.92922        37.28069         0.35021
C         14.67553        37.93934         0.16378
C         15.88056        40.03074        -0.32499
C         14.66615        39.31995        -0.12740
C         15.86471        41.42719        -0.63227
C         14.59336        42.10886        -0.78342
C         15.86233        44.29062        -1.20374
C         14.55955        43.51927        -1.22068
C         15.80216        45.75324        -1.05498
C         14.54494        46.42680        -1.12769
C         15.70199        48.57675        -0.81462
C         14.51891        47.83461        -1.01523
C         15.67944        50.00598        -0.68564
C         18.12097        10.51269         1.92121
C         18.13251        11.99186         1.60892
C         16.94887        12.67549         1.60695
C         18.16140        14.77438         0.99376
C         16.89065        14.11740         1.47745
C         18.24434        16.26879         1.16911
C         17.05211        17.04848         1.50737
C         18.24561        19.08003         0.69701
C         17.01365        18.46397         1.11689
C         18.27995        20.55359         0.53944
C         17.00815        21.29605         0.43105
C         18.21982        23.26483        -0.47213
C         16.97272        22.57775        -0.09149
C         18.20335        24.62115        -0.89818
C         16.92123        25.28212        -1.13244
C         18.21070        27.50197        -1.27167
C         16.92492        26.80016        -1.33131
C         18.19541        28.92864        -1.10834
C         17.01182        29.62568        -0.88884
C         18.24995        31.76388        -0.58193
C         17.04326        31.03620        -0.49633
C         18.31934        33.08153        -0.08981
C         17.13854        33.72720         0.41230
C         18.37610        35.83436         0.64464
C         17.17915        35.14990         0.67927
C         18.40934        37.27508         0.44749
C         17.13669        37.94986         0.15587
C         18.34888        40.04563        -0.37755
C         17.13409        39.33967        -0.21891
C         18.34971        41.44134        -0.60227
C         17.09577        42.13567        -0.73835
C         18.29510        44.27262        -0.74263
C         17.10278        43.55952        -0.86685
C         18.25163        45.73898        -0.56290
C         16.98477        46.48007        -0.80989
C         18.19018        48.66554        -0.40381
C         16.94366        47.88006        -0.70254
C         18.17242        50.10744        -1.02811
C         16.85393        50.76267        -0.56627
C         18.08772        52.83516         0.04447
C         16.87879        52.08205        -0.12117
C         18.05949        54.16568         0.45913
C         20.61193         6.19061         1.56264
C         20.66157         7.69709         1.50116
C         19.44403         8.42524         1.60384
C         20.66735        10.53785         1.64996
C         19.43351         9.80351         1.68127
C         20.64554        11.94977         1.66913
C         19.41485        12.69796         1.54252
C         20.66236        14.93063         1.58860
C         19.42630        14.07275         1.41677
C         20.65795        16.12793         0.60973
C         19.39196        16.92149         0.79675
C         20.64360        18.90612        -0.06800
C         19.41900        18.34294         0.58369
C         20.64814        20.34688        -0.46899
C         19.52447        21.20310         0.02370
C         20.69400        23.26711        -0.71699
C         19.46112        22.59802        -0.45183
C         20.65862        24.65735        -1.01225
C         19.40723        25.33553        -1.14637
C         20.65555        27.49025        -1.72149
C         19.38884        26.76399        -1.35098
C         20.75182        28.90387        -1.17444
C         19.48396        29.64484        -0.96881
C         20.79441        31.79227        -0.96362
C         19.46081        31.13095        -1.23792
C         20.78555        33.13495        -0.47061
C         19.59316        33.74982        -0.05768
C         20.91701        35.79890         0.70818
C         19.62993        34.99827         0.78214
C         20.88747        37.31526         0.69028
C         19.59913        37.97369         0.36149
C         20.88408        40.08951        -0.30558
C         19.63104        39.25512        -0.45392
C         20.86427        41.49438        -0.59489
C         19.58695        42.18105        -0.70917
C         20.77087        44.36676        -1.01272
C         19.54383        43.58563        -0.76513
C         20.79879        45.80433        -0.86390
C         19.55946        46.50873        -0.56443
C         20.70594        48.75519        -1.05956
C         19.44834        47.96378        -0.88656
C         20.66841        50.20078        -0.70578
C         19.42426        50.83503        -0.55410
C         20.56558        52.83682         0.27455
C         19.36743        52.17380        -0.11792
C         20.51701        54.20477         0.70115
C         19.25994        54.88660         0.73923
C         20.40556        56.98077         1.35200
C         19.22426        56.26043         1.05685
C         20.36632        58.36526         1.61848
C         22.91184         3.49919         0.14707
C         21.76493         4.16744         0.58643
C         23.05161         6.19690         0.90971
C         21.83358         5.51571         0.98470
C         23.18046         7.62355         1.40188
C         21.86713         8.37733         1.42077
C         23.14788        10.49018         1.34386
C         21.90394         9.80830         1.48593
C         23.23109        11.92583         1.63191
C         21.89973        12.69451         1.76958
C         23.13532        14.80088         1.32285
C         21.94538        14.13812         1.49337
C         23.04411        16.30433         1.48605
C         21.91251        16.98127         0.74861
C         23.19534        18.93804        -0.24017
C         21.95321        18.21381         0.13246
C         23.18132        20.29898        -0.50931
C         21.92859        21.05376        -0.90952
C         23.18372        23.22912        -0.61169
C         21.95164        22.54951        -0.63700
C         23.15356        24.71518        -0.71545
C         21.89763        25.38924        -1.15036
C         23.14460        27.47340        -1.77553
C         21.90802        26.73750        -1.40403
C         23.15339        28.96800        -1.75618
C         22.00790        29.65533        -1.45362
C         23.25010        31.80951        -1.27221
C         22.00430        31.10934        -1.25699
C         23.19336        33.32318        -1.22079
C         22.04670        33.86540        -0.38879
C         23.33019        35.90574        -0.00345
C         22.12158        35.11568         0.17454
C         23.34142        37.26871         0.03009
C         22.19691        38.09705         0.55423
C         23.33338        40.16230        -0.18770
C         22.09540        39.44885        -0.10672
C         23.32441        41.57466        -0.33597
C         22.08130        42.21715        -0.58762
C         23.35171        44.42859        -0.70987
C         22.12283        43.63617        -0.96211
C         23.32284        45.84557        -0.80656
C         22.04776        46.54663        -1.28664
C         23.23564        48.76815        -0.63703
C         21.98105        47.99732        -0.82330
C         23.19626        50.27820        -0.82435
C         21.87305        50.87522        -0.37743
C         23.01712        52.71942         0.88499
C         21.81200        52.15677         0.17492
C         22.97637        54.23053         1.03588
C         21.72421        54.90437         1.03494
C         22.85035        56.98521         1.75556
C         21.67182        56.29033         1.37667
C         22.78995        58.39639         2.04194
C         21.54021        59.08731         1.93112
C         22.65888        61.18469         2.45606
C         21.50167        60.49383         2.15059
C         24.13441         4.16396         0.09260
C         25.47660         6.23054         0.40468
C         24.22213         5.52650         0.45698
C         25.53387         7.61749         0.52959
C         24.21440         8.36149         0.54926
C         25.55302        10.48564         0.83916
C         24.32625         9.81379         0.94249
C         25.61560        11.92102         0.94897
C         24.41925        12.68315         1.20752
C         25.61841        14.77411         0.74761
C         24.39240        14.08585         1.09423
C         25.69912        16.09611         0.26322
C         24.55139        16.78719        -0.28012
C         25.72685        18.88672        -0.24247
C         24.46483        18.19501        -0.24098
C         25.73250        20.32497        -0.59867
C         24.43189        21.05961        -0.75758
C         25.70508        23.23458        -0.60600
C         24.43807        22.54557        -0.62799
C         25.76663        24.76067        -0.51151
C         24.44523        25.45837        -0.86269
C         25.71916        27.47356        -1.92404
C         24.43632        26.71655        -1.69887
C         25.70700        28.96392        -2.05216
C         24.39835        29.76011        -2.14545
C         25.73872        31.79815        -1.45862
C         24.47788        31.14884        -1.52161
C         25.75397        33.33527        -1.55396
C         24.52751        33.94487        -0.89466
C         25.81053        35.90558        -0.11247
C         24.56350        35.20059        -0.36252
C         25.84514        37.27543        -0.11468
C         24.56468        37.99741        -0.47464
C         25.77599        40.16678        -0.08871
C         24.56599        39.46506        -0.15166
C         25.76678        41.59289        -0.14651
C         24.56532        42.29487        -0.31870
C         25.76673        44.49465        -0.27642
C         24.55874        43.74941        -0.44348
C         25.73577        45.91682        -0.33386
C         24.50541        46.57761        -0.60466
C         25.81073        48.83810        -0.71498
C         24.53134        48.04751        -0.83636
C         25.78650        50.39565        -0.70728
C         24.42793        50.96592        -0.26461
C         25.53042        52.99540         0.60187
C         24.32788        52.16151         0.36461
C         25.40828        54.18112         1.50350
C         24.13092        54.92297         1.43325
C         25.31732        56.97177         2.19476
C         24.09322        56.28807         1.81319
C         25.27310        58.42259         2.63190
C         23.95615        59.12038         2.39241
C         23.88349        60.49966         2.58471
C         26.74462         8.33170         0.52424
C         28.01421        10.43153         0.65023
C         26.78784         9.74637         0.65174
C         28.08798        11.84596         0.77124
C         26.85288        12.57474         0.91064
C         28.21473        14.73466         0.79583
C         26.87004        14.03599         1.02983
C         28.16440        16.10317         0.31151
C         26.95974        16.80594         0.19312
C         28.22640        18.90177        -0.53191
C         26.93354        18.20618        -0.15377
C         28.24949        20.37793        -0.18734
C         26.95247        21.11524        -0.26733
C         28.25257        23.25054        -0.53483
C         26.92773        22.56877        -0.49491
C         28.28757        24.70114        -0.91241
C         26.96900        25.31452        -1.26352
C         28.27293        27.48892        -1.78876
C         27.00115        26.72144        -1.75288
C         28.19951        28.90124        -1.77646
C         26.98081        29.65158        -1.74434
C         28.24226        31.71356        -1.35357
C         26.96559        31.04921        -1.53076
C         28.26568        33.12062        -1.06552
C         27.06105        34.02497        -1.11628
C         28.27633        35.84674        -0.13785
C         27.02960        35.02524         0.08548
C         28.33761        37.23483         0.43821
C         27.05715        38.03845         0.08538
C         28.20693        40.20359         0.51754
C         27.02219        39.42079         0.08690
C         28.23113        41.64706         0.36996
C         27.07585        42.32343        -0.32127
C         28.13355        44.53803         0.33452
C         27.00418        43.81147        -0.01567
C         28.11182        45.97271         0.32458
C         26.93994        46.67551        -0.08136
C         28.08819        48.80556         0.33725
C         26.97692        48.09874        -0.16814
C         28.07515        50.26936         0.39702
C         26.96073        50.98723         0.05049
C         28.08141        53.12087         0.92436
C         26.89588        52.43590         0.33866
C         27.97878        54.30951         1.55593
C         26.66157        54.90163         1.91069
C         26.52886        56.33849         2.19280
C         29.33154        12.51296         0.68091
C         30.66454        14.56704         0.37890
C         29.44944        13.92756         0.59093
C         30.74219        16.00202         0.06864
C         29.44120        16.74059        -0.05233
C         30.73069        18.95302         0.10925
C         29.43467        18.22375         0.08054
C         30.71692        20.35265        -0.36374
C         29.53814        21.07607        -0.45005
C         30.71213        23.18720        -0.93294
C         29.52001        22.48650        -0.71832
C         30.76812        24.60957        -1.14925
C         29.50209        25.26362        -1.64778
C         30.74479        27.45322        -1.56257
C         29.51908        26.78610        -1.64601
C         30.77931        28.89448        -1.86370
C         29.45941        29.65467        -1.92147
C         30.71577        31.82686        -1.51602
C         29.45950        31.09366        -1.61927
C         30.65842        33.34254        -1.76393
C         29.37790        33.89339        -1.18582
C         30.84030        36.38382        -1.23788
C         28.84275        35.30013        -1.40903
C         30.71987        37.65862        -0.52205
C         29.58569        38.06897         0.13075
C         30.78801        40.23184         0.84042
C         29.52494        39.43566         0.69695
C         30.74629        41.76148         0.91046
C         29.51516        42.43419         0.34126
C         30.63903        44.64227         0.78547
C         29.35251        43.84363         0.91701
C         30.56188        46.01514         0.84361
C         29.27979        46.70147         0.70374
C         30.35213        48.80483         1.52066
C         29.22209        48.10015         0.80823
C         30.37171        50.28450         1.28345
C         29.29926        50.96200         0.82369
C         29.39352        52.45825         0.59013
C         31.97995        16.79384         0.21007
C         33.21955        18.92894         0.10236
C         32.00607        18.17801         0.11727
C         33.24771        20.30827        -0.19408
C         32.00280        20.96217        -0.68251
C         33.22116        23.22571        -0.70294
C         31.99311        22.46110        -0.95239
C         33.21206        24.59393        -0.87971
C         31.97890        25.29540        -1.15082
C         33.17778        27.44538        -1.07070
C         31.99739        26.75562        -1.27839
C         33.24149        28.92868        -1.16167
C         32.02067        29.68812        -1.58233
C         33.10351        31.87138        -0.85839
C         31.90239        31.15117        -1.35966
C         33.20838        33.34389        -1.14122
C         31.96987        34.12074        -1.49271
C         33.17607        36.18253        -0.54155
C         31.95538        35.57713        -1.11819
C         33.18787        37.53357        -0.28201
C         32.00403        38.44653        -0.54635
C         33.18789        40.41073         0.40261
C         32.03295        39.66089         0.35810
C         33.20698        41.82563         0.67870
C         32.00003        42.51303         0.75487
C         33.11403        44.68589         0.78856
C         31.94162        43.96985         0.76692
C         33.13419        46.19420         0.78978
C         31.77219        46.83239         0.94823
C         31.67975        48.15393         1.22834
C         34.40510        21.08505        -0.07659
C         35.48824        23.25936         0.20723
C         34.41865        22.51318        -0.24540
C         35.39800        24.76393         0.24226
C         34.58318        25.25481        -0.97107
C         35.57638        27.52689        -0.26972
C         34.55050        26.80310        -1.13477
C         35.50731        28.93037        -0.12941
C         34.36496        29.63399        -0.51646
C         35.61824        31.80244        -0.27228
C         34.31114        31.10442        -0.38479
C         35.66283        33.24622        -0.57731
C         34.41519        34.04063        -0.62042
C         35.67213        36.06919        -0.02740
C         34.42247        35.40455        -0.39797
C         35.67278        37.49904         0.34420
C         34.38938        38.23258         0.21578
C         35.74125        40.43811         0.15170
C         34.43935        39.71782         0.03904
C         35.66958        41.87811         0.48128
C         34.48402        42.53080         0.65810
C         34.47906        44.03213         0.85397
C         36.72642        25.44813         0.31601
C         37.96117        27.57292         0.44018
C         36.75726        26.81869         0.16245
C         37.94477        28.94055         0.54852
C         36.62114        29.67931         0.58462
C         37.99774        31.81139         0.38395
C         36.74020        31.12490         0.13635
C         38.08202        33.19741         0.29484
C         36.96157        33.97292        -0.25119
C         38.10495        36.08859         0.46200
C         36.87913        35.40649         0.05812
C         38.14045        37.47728         0.55142
C         36.95316        38.26227         0.38656
C         36.96338        39.63865         0.37979
C         39.14303        29.67355         0.80789
C         40.37598        31.78019         1.10947
C         39.16923        31.06088         0.79289
C         40.42092        33.14418         1.08654
C         39.26408        33.91316         0.70613
C         39.27520        35.30584         0.72219
O         32.94402        33.74079        -2.53431
O         29.91267        18.73544         1.34269
O         16.81438        25.88366        -2.47117
O         29.76345        36.10345        -2.09807
O         25.79862        28.10744        -3.24375
O         36.61518        33.61670        -1.63455
O         12.39825        38.42313        -1.58967
O         16.52203        16.78641         2.84931
O         18.89614        46.15328         0.71602
O         13.29462        28.02683        -2.62359
O         33.08222        29.39796        -2.58560
O         19.28728        21.13264         1.47331
O         28.66820        39.63784         1.85220
O         15.27582        43.79661        -2.46646
O         20.98967        36.56622         1.96133
O         25.31702        48.36806        -2.01969
O         28.45469        24.34624         0.46861
O         25.92030        54.02091         2.86169
O         22.50804        48.24696         0.52101
O         30.77268        40.95128         2.10927
O         23.72587        16.90238         2.30117
O         26.22587        53.28498        -0.66195
O         21.49050        43.91300        -2.25435
O         22.70654        12.31847         2.94075
O         20.25642        29.15342         0.17962
O         27.56935        35.00357        -2.14529
O         15.13701        21.38977         2.02895
O         33.28760        31.59587         0.58506
O         30.18788        29.27562        -3.14086
O         14.62822        34.32746         2.26582
O         34.83263        37.77925         1.54318
O         26.87769        25.53988        -2.68971
O         20.28052        19.32010        -1.45798
O         27.66130        14.55992         2.14780
O         10.98053        24.65713        -1.63115
O         19.92525        48.31307        -2.21013
O         30.05636        16.27584        -1.29818
O         32.12076        21.47926        -2.04653
O         23.68754        26.71955        -2.94790
O         23.68415        25.54446         0.39698
O         18.16371        50.06578        -2.39438
O          9.60975        34.62974         2.12646
O         25.21292        20.59356        -1.93407
O         27.55374        20.73570         1.03326
O         12.81605        30.76496         1.94757
O         18.10032        14.58012        -0.47285
H         19.00915        14.76119        -0.82188
O         24.21927        30.07329        -3.55655
H         24.47123        29.26116        -4.05668
O         24.47420        37.96052        -1.94187
H         24.51498        37.02005        -2.22035
O         34.02023        46.68042         1.81129
H         33.61525        46.49734         2.68339
O         19.69329        38.76118        -1.84953
H         19.70565        39.54443        -2.44097
O         19.58049        34.45690         2.14744
H         19.82449        35.20027         2.74567
O         30.44175        33.44874        -3.19694
H         31.32648        33.37861        -3.62507
O         29.09824        43.67683         2.33599
H         28.91136        44.55777         2.72112
O         22.92804        52.20399         2.25951
H         22.09007        52.53048         2.65044
O         27.31983        42.26207        -1.77616
H         28.16816        42.74192        -1.93692
O         35.36334        44.63994        -0.10088
H         35.11082        44.32949        -0.99444
O         16.17054        36.34464         2.46103
H         15.90210        35.57085         3.00994
O         20.59796        15.53248         2.90833
H         20.72142        14.82871         3.57944
O         23.68384         7.58109         2.76063
H         22.98531         7.18872         3.32613
O         28.28886        37.03591         1.88131
H         28.30958        37.93784         2.29462
O         34.98240        27.08946        -2.51009
H         34.54544        27.91691        -2.81528
O         34.63716        25.13809         1.43875
H         35.09353        24.75833         2.21855
O         29.68828        52.69920        -0.79764
H         28.90695        52.43195        -1.32698
O         19.25318        31.23619        -2.68332
H         19.37052        32.17339        -2.94558
O         26.97855        34.36648         1.35381
H         27.28163        35.01852         2.02475
O         12.15481        18.38473         1.05424
H         12.17612        18.30469         0.07872
O         35.09346        40.14872        -1.19738
O         23.69844         8.34559        -0.81480
H         24.37203         8.75381        -1.39771
O         15.17655        30.01561         1.57845
H         14.38901        29.85540         2.15192
O         10.41574        31.32285         2.31360
H         11.26096        31.32777         2.82360
O         13.14439        40.21334         1.47728
H         13.91745        40.67367         1.86675
O         17.05278         9.85685         1.22719
H         17.18486         9.98950         0.26634
O         26.35001        59.16145         2.03800
H         26.20025        59.19964         1.07126
O         32.15764        38.95910        -1.91016
H         33.06861        39.31702        -2.00450
O         22.62483        38.46481         1.90883
H         22.35967        37.71695         2.49582
O         26.00323        50.82732        -2.06870
H         25.21091        50.55018        -2.58703
O         20.63149        27.67541        -3.17134
H         20.68049        26.79411        -3.59772
O         12.89513        23.70082         1.32687
H         13.68593        24.18022         1.65328
O         14.26947        30.40494        -1.94334
H         13.96425        29.67609        -2.56496
O         22.10722        46.58084        -2.73651
H         21.99457        45.65079        -3.04859
O         35.23326        24.67254        -2.11320
H         35.14868        25.30939        -2.86039
O         36.24458        29.74767         1.99649
H         36.13047        28.82858         2.31800
O         11.84728        22.16158        -1.82386
H         11.52411        22.99197        -2.24752
O         22.87133        33.71957        -2.59738
H         23.67993        33.53834        -3.13771
O         26.06000        25.08730         0.86393
H         25.21220        25.03141         1.36385
O         25.59219        33.58267        -2.98400
H         26.37732        34.09191        -3.29505
O         10.86444        29.30982        -2.11527
H         11.67525        28.87073        -2.50823
O          6.95760        33.97181         2.46663
H          7.83622        34.29547         2.78293
O         18.29209        48.85080         1.02468
H         18.39190        47.95235         1.42197
O         20.50926         5.82239         2.95532
H         20.53148         4.84477         3.01064
O         23.64615        16.02022        -0.94174
H         22.94051        16.57373        -1.33454
O         14.22440        27.02950         0.75344
H         15.08144        26.89657         1.21212
O         21.96106        21.00649        -2.36913
H         21.48771        20.18425        -2.63877
O         30.11204        48.62393         2.96331
H         30.14473        47.66117         3.14539
O         29.87431        42.65405        -1.07417
H         30.09623        41.78789        -1.47938
O         23.25943        50.50375        -2.26773
H         22.47171        50.09289        -2.68616
O         20.68765        15.58866        -0.75147
H         20.49548        16.32880        -1.36743
O         29.41337        24.84871        -3.03657
H         28.54312        25.16254        -3.38732
O         28.38444        18.81739        -1.97206
H         28.65232        17.90171        -2.20520
H          4.90962        31.27081        -0.12686
H          4.90548        33.60450         0.62973
H          7.33045        26.96924        -0.23100
H          6.10464        29.11205        -0.35953
H          6.26033        35.65656         0.12045
H          7.52968        37.70555        -0.38441
H         10.16633        22.74378         1.02154
H          8.34456        25.01952         0.32021
H          8.73596        39.78549        -0.57350
H          9.95346        41.96908        -0.66090
H         13.07982        19.43356         2.55741
H         11.14785        20.42272         0.30173
H         11.13744        44.07859        -0.91114
H         12.37319        46.22656        -1.12695
H         14.79468        14.28596         1.84487
H         13.54601        16.57945         1.40713
H         13.55333        48.35938        -1.06315
H         14.70655        50.51977        -0.74618
H         17.88541        10.40632         3.01952
H         16.01226        12.12473         1.78377
H         15.95116        52.51782         0.28715
H         17.09474        54.68444         0.56171
H         19.68913         5.82193         1.02560
H         18.49118         7.87829         1.65309
H         18.25889        56.78762         1.06114
H         19.40352        58.89556         1.57194
H         22.84670         2.44422        -0.15319
H         20.80125         3.63786         0.62723
H         22.62718        62.27149         2.61481
H         20.54146        61.02216         2.06463
H         25.03567         3.63651        -0.25128
H         26.40283         5.65533         0.25066
H         25.46406        58.44210         3.74193
H         24.79741        61.05284         2.84255
H         27.69340         7.77788         0.45017
H         28.94591         9.85907         0.52806
H         28.88562        54.83230         1.89910
H         27.43753        56.92365         2.40252
H         30.24228        11.90506         0.57106
H         31.59167        13.97373         0.36273
H         31.28865        50.83048         1.55563
H         30.22977        52.89361         1.18912
H         32.93055        16.24663         0.30653
H         34.16832        18.40864         0.30550
H         33.58382        46.52465        -0.18860
H         32.59813        48.74565         1.36298
H         35.32861        20.60449         0.28248
H         36.35905        22.75895         0.66029
H         36.60816        42.45261         0.51628
H         34.90846        44.27461         1.86772
H         37.62934        24.89788         0.62151
H         38.90766        27.02187         0.55029
H         39.09446        37.98489         0.75757
H         37.91689        40.17292         0.51080
H         40.07203        29.11478         1.00017
H         41.26569        31.20118         1.39739
H         41.34306        33.67763         1.35874
H         40.19717        35.83045         1.01435
