         264
 CSIRO Nanostructure Databank - Neutral Graphene Oxide Data Set
C        -11.04167         0.66095         1.29131
C         -9.76599         1.44877         1.05418
C         -9.05128         0.80158        -0.12836
C         -7.77439         1.50917        -0.61688
C         -6.45704         0.80307        -0.53571
C         -5.24021         1.57020        -1.08852
C         -3.85768         0.99474        -0.99674
C         -2.71677         1.57042        -1.80653
C         -1.38484         0.84997        -1.82136
C         -0.11044         1.59337        -2.37318
C          1.24584         0.79361        -2.13096
C          2.54172         1.53406        -1.88074
C          3.88523         0.76211        -1.79683
C          5.12255         1.51079        -1.36357
C          6.45689         0.78017        -1.24245
C          7.72504         1.60879        -1.00429
C          8.84317         0.75756        -0.35821
C         10.07599         1.53892        -0.00106
C         11.19401         0.80360         0.51309
C         -9.94256         2.90864         0.72361
C         -8.93739         3.64378         0.11718
C         -7.78826         3.05217        -0.70269
C         -6.40805         3.70771        -0.37352
C         -5.30602         3.05601        -1.22643
C         -4.05735         3.81916        -1.66690
C         -2.77832         3.07574        -2.02231
C         -1.45973         3.82219        -1.94141
C         -0.10428         3.06998        -1.91262
C          1.12274         3.71183        -1.31528
C          2.43873         2.92101        -1.30421
C          3.56826         3.44723        -0.47264
C          4.93590         2.73399        -0.51998
C          6.14320         3.35109         0.13875
C          7.50780         2.65530         0.10000
C          8.69968         3.53845         0.32770
C          9.94064         2.92599         0.28019
C         -8.92788         5.05101         0.28369
C         -7.72087         5.77929         0.08591
C         -6.67545         5.14467        -0.81242
C         -5.39067         5.99105        -1.02567
C         -4.09939         5.31537        -1.45076
C         -2.76866         6.05782        -1.38798
C         -1.48248         5.25297        -1.47415
C         -0.32869         5.73538        -0.61889
C          0.87469         4.80507        -0.27472
C          2.14412         5.63412         0.24245
C          3.46620         4.85038         0.05304
C          4.77601         5.59514         0.01174
C          6.09317         4.86728         0.18375
C          7.25699         5.62964         0.71006
C          8.52554         4.86031         1.05407
C         -7.47916         6.92274         0.80479
C         -6.06212         7.34220         1.04350
C         -5.22200         7.28475        -0.23851
C         -3.91117         8.02801        -0.20518
C         -2.71486         7.51433        -0.98875
C         -1.36936         8.16581        -0.69541
C         -0.26028         7.19933        -0.32728
C          1.05003         7.86362        -0.12328
C          2.23347         7.11635        -0.03792
C          3.45266         7.80105         0.18875
C          4.74458         7.09232         0.14275
C          6.00488         7.80047         0.62112
C          7.17553         6.95976         0.97583
C         -5.94890         8.67755         1.72878
C         -4.77754         9.31974         1.77233
C         -3.55261         8.70784         1.14606
C         -2.41815         9.70106         1.00543
C         -1.37002         9.31787         0.26645
C         -0.23795         9.92008        -0.52565
C          1.08118         9.27793        -0.16070
C          2.27020         9.94305         0.14280
C          3.46118         9.20592         0.36735
C          4.65557         9.83865         0.90768
C          5.81035         9.16352         1.14953
C        -11.13600        -0.65818         0.99422
C        -10.03702        -1.44445         0.45998
C         -8.77731        -0.75196        -0.02230
C         -7.56708        -1.23517         0.81676
C         -6.29811        -0.47501         0.26822
C         -4.95472        -1.11586         0.09821
C         -3.74774        -0.37054        -0.43543
C         -2.45481        -1.12428        -0.45942
C         -1.21935        -0.38548        -0.94558
C          0.04098        -1.18434        -1.02511
C          1.27217        -0.64712        -1.71352
C          2.53853        -1.25352        -1.12038
C          3.89147        -0.72588        -1.52553
C          5.14953        -1.43460        -1.04416
C          6.47930        -0.71716        -1.13972
C          7.75923        -1.47685        -0.82384
C          9.04210        -0.70612        -0.74593
C         10.34685        -1.41731        -0.33159
C         11.24929        -0.55935         0.51597
C        -10.00242        -2.80845         0.36674
C         -8.73544        -3.50314         0.16536
C         -7.51027        -2.81960         0.78782
C         -6.17990        -3.36832         0.36957
C         -4.90526        -2.61736         0.15644
C         -3.76173        -3.33378        -0.53561
C         -2.46577        -2.60412        -0.24949
C         -1.18921        -3.37924        -0.32739
C         -0.00310        -2.68898        -0.91805
C          1.27063        -3.45124        -0.85361
C          2.51372        -2.66498        -0.61859
C          3.77438        -3.38590        -0.15559
C          5.08902        -2.65700        -0.14733
C          6.36700        -3.38798         0.25628
C          7.67384        -2.58367         0.22804
C          8.92934        -3.43644         0.31547
C         10.12715        -2.83157         0.18464
C         -8.69946        -4.84664        -0.13370
C         -7.51196        -5.64648         0.11886
C         -6.31350        -4.85409         0.57506
C         -5.03744        -5.56837         0.18305
C         -3.77379        -4.85303        -0.22398
C         -2.49822        -5.56499         0.31491
C         -1.18116        -4.84366        -0.01467
C          0.08281        -5.65832        -0.17834
C          1.30128        -4.94731        -0.68838
C          2.60159        -5.66767        -0.56162
C          3.76553        -4.89589        -0.00799
C          5.02272        -5.63534         0.36018
C          6.33056        -4.88212         0.50235
C          7.60276        -5.65726         0.46562
C          8.84479        -4.86424         0.86905
C         -7.48620        -6.99498         0.37617
C         -6.27539        -7.66965         1.04034
C         -5.01730        -7.05522         0.43957
C         -3.74096        -7.81075         0.37358
C         -2.47923        -7.06903         0.02321
C         -1.21329        -7.85402         0.06018
C          0.09209        -7.12823         0.07645
C          1.30876        -7.94447        -0.24475
C          2.58836        -7.18236        -0.43502
C          3.89259        -7.88704        -0.23183
C          5.10003        -7.16372         0.38289
C          6.40267        -7.79269        -0.16306
C          7.61931        -6.99671         0.28463
C         -6.16046        -9.18194         0.88469
C         -4.98573        -9.83689         0.95824
C         -3.66831        -9.10303         1.18112
C         -2.37918        -9.87318         0.93323
C         -1.19562        -9.27948         0.51919
C          0.07607        -9.94878         0.57612
C          1.33140        -9.35079         0.25106
C          2.56547       -10.00592         0.35075
C          3.86868        -9.37253         0.05225
C          5.19108        -9.92811         0.48665
C          6.34671        -9.24670         0.32307
O          4.08672        -8.82079        -1.32397
O         -2.35432         0.68623        -2.89533
O          0.34756        -6.22982         1.18263
O          6.26071        -3.94706         1.60204
O         -5.05381         8.54525        -0.93897
O          1.85336        -7.76244        -1.56538
O          7.54502         1.80005         1.33092
O         -5.34115        -0.45709         1.34926
O          4.23029        -2.64135         1.01133
O         -5.16550        -3.04458         1.47645
O         -4.63625        -5.43277        -1.23314
O         -2.82992         7.15269        -2.36749
O         -0.80004         6.27799         0.67913
O          2.06438        -5.37040        -1.87598
O         -1.29759         4.92623        -2.87431
O          0.79137         3.93211        -2.69382
O          1.32758        -0.30477        -3.10301
O         -3.68348         3.50878        -3.04948
O         -4.64975        -7.82702        -0.75563
O         -7.32800         4.91212        -2.11316
O          2.79258         2.70123        -2.69773
O          3.30666         3.69806         0.92896
O          2.29634        -1.51382         0.27755
O         -7.51609        -3.44690         2.16570
O          6.63190        -0.04792        -2.41972
O          4.02635        -5.25762         1.37705
O         -1.90444        -7.55785        -1.21284
O          0.57112        -3.21707        -2.14046
O         -4.98873         5.99368        -2.39735
O          5.60482         5.26715        -1.15119
O         -7.33048         0.68436        -1.72027
O          5.66347         7.72327        -0.80222
O          7.63212        -1.73171         1.37800
O         -6.67199        -4.73642         2.06085
O         -8.51364        -1.15547        -1.33603
O         -0.77129         9.12673        -1.68947
O          8.62873        -1.35477        -1.99309
O          4.59384        -1.65570        -2.38901
O          4.75374         1.41275        -2.76118
O          1.98539         5.77831         1.64178
O         -3.49910         0.83896         0.39807
O          5.27493         2.48158         0.89272
O         -0.87732        -3.85532         1.02611
O         -5.66716         2.18677        -2.32365
O         -7.97722         3.55366        -2.06319
O         -2.37310        -1.71806         0.88642
O          8.30611         0.62393         1.04143
O         -0.23697        -0.33030         0.12550
O          5.09929        -7.50984         1.79272
H          4.63167        -6.79630         2.28464
O         10.02917        -5.58836         0.55801
H         10.07876        -5.70890        -0.41217
O          8.12425         2.22310        -2.21506
H          7.85638         1.63348        -2.95557
O          6.44883        -7.74005        -1.60075
H          5.72815        -8.32109        -1.94718
O         -0.27697         1.63649        -3.78446
H          0.34968         2.30089        -4.14469
O         11.13519        -1.57197        -1.55232
H         10.50568        -1.85746        -2.25458
O         -6.31012        -7.42431         2.47146
H         -6.58207        -6.48769         2.62970
O         -3.61562        -8.73033         2.58841
H         -4.49002        -8.33645         2.82745
O         -3.93471        -3.15947        -1.95802
H         -4.42033        -3.94819        -2.30382
O         -7.70854        -0.86052         2.18657
H         -6.82538        -0.97787         2.61053
O         -6.03376         3.60240         0.99499
H         -5.97691         4.49661         1.41998
O         -8.97732         1.47535         2.26215
H         -8.63183         0.56386         2.45137
O         -5.50238         6.28848         1.90745
H         -4.61811         6.61912         2.22855
O         -9.97004         0.92827        -1.21557
H         -9.63628         0.29657        -1.90388
O         -3.11781         7.61536         2.02002
H         -2.23416         7.28564         1.72375
O         -2.66963        -5.51166         1.74768
H         -2.13767        -4.75387         2.09358
O          9.67774         5.67969         0.89010
H          9.68775         6.02416        -0.02664
O          0.44708         4.03015         0.85678
H          0.81996         4.52052         1.64811
H         12.09931        -1.05821         1.00525
H         11.98284         1.37727         1.02373
H         10.82788         3.49495         0.59770
H          8.47501         4.59866         2.15176
H          8.04960         7.45924         1.42424
H          6.63815         9.64914         1.68711
H          4.56576        10.88660         1.23123
H          2.28994        11.04080         0.21054
H         -0.20675        11.01625        -0.71011
H         -2.46245        10.66945         1.52519
H         -4.68229        10.29249         2.27708
H         -6.84769         9.10515         2.19776
H         -8.28163         7.36399         1.41658
H         -9.73357         5.52076         0.87010
H        -10.78843         3.45355         1.17512
H        -11.89242         1.17525         1.76366
H        -12.06762        -1.19805         1.22787
H        -10.90067        -3.41143         0.57540
H         -9.62443        -5.35690        -0.44158
H         -8.39471        -7.59488         0.20927
H         -7.09226        -9.75469         0.75484
H         -4.96900       -10.93536         0.88159
H         -2.34633       -10.91929         1.28001
H          0.08146       -10.99404         0.92465
H          2.58350       -11.02741         0.76370
H          5.21309       -10.96066         0.86942
H          7.29558        -9.73734         0.59106
H          8.58745        -7.52238         0.32097
H          8.80794        -4.76322         1.98815
H         11.04418        -3.42270         0.34259
