         349
 CSIRO Nanostructure Databank - Neutral Graphene Oxide Data Set
C          1.49009         3.68376        -1.46694
C          0.48248         4.48981        -1.90494
C          1.31042         6.47849        -0.70828
C          0.38014         5.86642        -1.52173
C          1.26223         7.90375        -0.37695
C          0.06858         8.62574        -0.59455
C          1.10148        10.66111         0.22742
C         -0.01214         9.97580        -0.30235
C          1.08946        12.10424         0.37466
C         -0.11424        12.83646         0.33026
C          1.10411        14.94411         0.11650
C         -0.11177        14.21690         0.24471
C          1.11389        16.34942        -0.10295
C         -0.10642        17.12447        -0.15752
C          1.10596        19.10572        -1.07300
C         -0.12816        18.41115        -0.56945
C          1.14095        20.61188        -0.85203
C         -0.04244        21.31245        -0.43721
C          1.03182        23.49732        -0.75438
C         -0.08016        22.66586        -0.29929
C          1.04436        24.92898        -0.31492
C         -0.06072        25.71845        -0.43496
C          1.09858        27.73488         0.35703
C         -0.03515        27.11863        -0.09758
C          1.17031        29.15980         0.57382
C          3.73782         3.49132        -0.33169
C          2.44997         4.15520        -0.46433
C          3.54865         6.34199         0.52824
C          2.34131         5.65734        -0.04914
C          3.69259         7.85496         0.34266
C          2.36622         8.57040         0.22572
C          3.37827        10.70300         1.22732
C          2.29445         9.94229         0.49178
C          3.54336        12.11490         0.68501
C          2.33877        12.80936         0.41955
C          3.58280        14.89462         0.04557
C          2.34535        14.22470         0.19160
C          3.58832        16.31196        -0.20622
C          2.35724        17.02830        -0.28787
C          3.58791        19.09843        -0.69718
C          2.37160        18.41735        -0.60174
C          3.57529        20.50503        -1.11396
C          2.33644        21.28623        -1.07803
C          3.58860        23.57083        -0.94810
C          2.33384        22.78166        -1.14452
C          3.58555        24.79512        -0.12840
C          2.30097        25.48489         0.23672
C          3.55795        27.68610         0.05257
C          2.35600        26.95128         0.68831
C          3.62614        29.11271         0.55067
C          2.36881        29.80382         0.71074
C          6.21308         3.54886         0.19825
C          4.98079         4.31213        -0.17278
C          6.10314         6.38810         0.77893
C          4.84882         5.60150         0.61337
C          6.06079         7.77269         1.06501
C          4.69633         8.42082         1.37205
C          5.99952        10.72233         1.35251
C          4.71024         9.96070         1.40398
C          6.03644        12.14593         0.91667
C          4.79295        12.80026         0.64444
C          6.05379        14.85602         0.08758
C          4.80943        14.17248         0.22079
C          6.02211        16.15030        -0.70822
C          4.81399        17.00295        -0.40648
C          6.13179        19.13504        -0.62826
C          4.82331        18.37883        -0.61720
C          6.08126        20.41514        -1.44734
C          4.75156        20.99558        -1.62343
C          6.09668        23.54001        -0.92383
C          4.80171        23.13477        -1.42256
C          6.08336        24.85918        -0.32130
C          4.86088        25.55131        -0.09889
C          6.08511        27.61409         0.34534
C          4.86324        26.92692         0.18007
C          6.09359        29.04769         0.60428
C          4.83012        29.74054         0.72636
C          8.62020         3.51875         0.56066
C          7.35756         4.22239         0.52754
C          8.53879         6.37016         0.93660
C          7.34044         5.68258         0.73600
C          8.52500         7.80134         1.03912
C          7.26852         8.49222         1.12576
C          8.55985        10.73948         1.13899
C          7.28534         9.95128         1.36364
C          8.54715        12.19924         0.90792
C          7.26674        12.85492         0.82200
C          8.43924        15.14664         0.77057
C          7.24580        14.24939         0.47579
C          8.62483        16.21983        -0.28327
C          7.36493        16.87921        -0.79506
C          8.55621        19.07008        -1.02727
C          7.38420        18.35497        -0.93030
C          8.58568        20.53766        -1.01436
C          7.32411        21.28993        -1.33443
C          8.52390        23.35658        -0.63146
C          7.29023        22.76612        -1.04081
C          8.51519        24.70085        -0.01467
C          7.29100        25.51048         0.00279
C          8.56303        27.58255         0.54522
C          7.30668        26.88871         0.31439
C          8.55789        29.03094         0.78910
C          7.28749        29.71493         0.78146
C         11.07725         3.51602         0.52355
C          9.81838         4.17579         0.69443
C         10.98034         6.36357         0.37550
C          9.84988         5.62971         1.10512
C         11.02341         7.78805         0.89127
C          9.74025         8.52294         0.93022
C         11.06813        10.77691         0.72408
C          9.75135         9.96138         0.72977
C         11.01690        12.21817         0.94939
C          9.79174        12.90940         0.87668
C         11.09058        15.23804         1.05630
C          9.73167        14.38643         1.27743
C         11.04875        16.45710         0.12601
C          9.87890        17.01143        -0.30079
C         11.12153        19.05067        -1.21030
C          9.83611        18.29893        -1.05120
C         11.05821        20.55080        -1.31975
C          9.77647        21.24317        -0.98991
C         11.00553        23.42202        -0.73782
C          9.78327        22.68545        -0.76454
C         11.01604        24.86167        -0.44706
C          9.81064        25.45132         0.19787
C         11.01247        27.55519         0.91577
C          9.75703        26.90958         0.46851
C         11.03836        29.03733         1.29321
C          9.72432        29.71785         1.00991
C         13.53310         3.49160         0.31667
C         12.28818         4.20450         0.48035
C         13.50042         6.35568         0.54272
C         12.30732         5.65377         0.52296
C         13.55970         7.80193         0.49147
C         12.32049         8.52663         0.86791
C         13.61509        10.75078         0.67460
C         12.34027        10.02508         0.94893
C         13.55388        12.22035         0.54938
C         12.34570        12.94212         1.18159
C         13.61138        15.10283         0.78757
C         12.27078        14.35535         0.57448
C         13.54287        16.47043         0.16252
C         12.33889        17.11714        -0.15799
C         13.63907        19.06626        -1.10612
C         12.37214        18.40077        -0.77458
C         13.66223        20.59267        -1.28634
C         12.33590        21.33038        -1.33453
C         13.61802        23.52887        -0.68294
C         12.29050        22.81043        -1.07703
C         13.58721        24.87064        -0.11447
C         12.34634        25.61503        -0.19125
C         13.55326        27.65695         0.60257
C         12.30080        26.87437         0.61780
C         13.48420        29.10024         0.57775
C         12.24918        29.74870         0.72763
C         16.00818         3.47399         0.11521
C         14.74052         4.14677         0.28257
C         16.02623         6.36363         0.20322
C         14.77071         5.60833         0.52054
C         15.97524         7.82873        -0.01099
C         14.72988         8.50019         0.21064
C         15.98163        10.67215        -0.19388
C         14.65518         9.97351        -0.12029
C         15.92259        12.14424        -0.29079
C         14.71059        12.89752         0.17359
C         16.01896        15.01313         0.04052
C         14.78630        14.32019         0.22359
C         16.07420        16.38672         0.09286
C         14.83156        17.23619         0.20496
C         16.14778        19.16877        -0.58593
C         14.93355        18.30943        -0.87177
C         16.07736        20.60707        -0.60323
C         14.88464        21.29472        -0.83114
C         16.01134        23.36795         0.29897
C         14.76431        22.66186        -0.29590
C         15.98873        24.83239         0.46823
C         14.77085        25.50246         0.38971
C         15.98518        27.69430         0.49378
C         14.75372        26.96720         0.53893
C         15.93998        29.12232         0.32785
C         14.69980        29.80223         0.35321
C         18.44438         3.48637        -0.26749
C         17.17064         4.15421        -0.16091
C         18.42255         6.36162        -0.43661
C         17.11427         5.62016        -0.52985
C         18.41580         7.77869        -0.41636
C         17.16258         8.51419        -0.28208
C         18.44924        10.66696        -0.45150
C         17.16931         9.97180        -0.31994
C         18.48996        12.07860        -0.46486
C         17.23698        12.86038        -0.37998
C         18.53603        14.98635        -0.46089
C         17.35174        14.27225         0.16229
C         18.56298        16.38141        -0.42565
C         17.39312        17.10323         0.20595
C         18.57598        19.25931        -0.38836
C         17.32717        18.54036        -0.25002
C         18.55109        20.65533        -0.45120
C         17.29768        21.33996        -0.29827
C         18.55761        23.37894         0.34291
C         17.28211        22.67668         0.08350
C         18.53437        24.83172         0.79520
C         17.20199        25.55960         1.04972
C         18.42126        27.74093         0.58734
C         17.23103        27.02188         0.63758
C         18.39774        29.14885         0.27541
C         17.16306        29.81683         0.16408
C         19.60207         4.18397        -0.45048
C         20.84801         6.34181        -0.55282
C         19.62697         5.63428        -0.49456
C         20.85231         7.72755        -0.57500
C         19.65315         8.47505        -0.50805
C         20.87398        10.64981        -0.67408
C         19.66550         9.93299        -0.54060
C         20.89625        12.03472        -0.74518
C         19.70565        12.78450        -0.65025
C         20.87323        14.96480        -1.12037
C         19.70882        14.24489        -0.75925
C         20.90419        16.34927        -1.08955
C         19.76424        17.09895        -0.69598
C         21.02313        19.29066        -0.58488
C         19.79948        18.53324        -0.55693
C         21.03416        20.65117        -0.62972
C         19.77242        21.44211        -0.85250
C         20.88105        23.65396        -0.39238
C         19.79000        22.84729        -0.27581
C         20.86213        25.03462         0.01631
C         19.75332        25.63067         0.53769
C         20.93991        27.87735         0.63155
C         19.71986        27.07937         0.99647
C         20.86141        29.19434         0.25541
C         19.62116        29.85005         0.10277
O          1.81348         4.61631         0.79337
O          9.24996        24.66462         1.28470
O         18.73168        23.75439         1.76927
O         13.75045        19.70447        -2.43225
O         10.51117        18.32444        -2.34860
O         11.61262        21.05378        -2.57954
O         13.23008        10.40172         2.05270
O          9.57503        14.22397         2.66648
O          3.97003         5.69762         1.76265
O         16.41245        12.70363        -1.58234
O          8.13285        10.34890         2.49213
O         15.75701         5.96781         1.57101
O          4.74973        22.14343        -2.41522
O         17.61506        14.31986         1.54690
O         11.63054        25.71084        -1.46451
O          1.41815        23.31749        -2.15988
O          6.90158        20.67584        -2.61727
O         11.78179         7.95604         2.12906
O         15.01896        22.67974         1.14607
O          2.95307        24.59993         1.21734
O          5.31339        10.46372         2.64753
O         11.68548        26.71377         1.94616
O         10.39866        10.36512        -0.52353
O         13.15321        23.47564        -2.06003
O          8.22241        16.04874        -1.67560
O         12.60238        13.04813         2.59100
H         12.77701        12.13797         2.92772
O          6.27913        19.64055         0.74861
H          6.28699        18.87235         1.35952
O          4.34426         8.05166        -0.94992
H          3.77371         7.67554        -1.65290
O         12.06407        14.21026        -0.84415
H         12.77649        13.65276        -1.22394
O          5.21366         4.80602        -1.56764
H          5.61438         4.06993        -2.07855
O         11.39150        15.79794         2.34649
H         10.80510        15.26657         2.97688
O          3.26845        27.73825        -1.37534
H          3.95749        28.28499        -1.80749
O         14.87382        17.87868         1.50157
H         14.80259        17.15339         2.17065
O         19.66462        21.62746        -2.31547
H         19.64406        20.73602        -2.72461
O         16.71415         5.67182        -1.94348
H         17.42436         5.24349        -2.46673
O         17.69575        17.07500         1.63834
H         17.74262        16.09453         1.86876
O         16.98620        25.55944         2.48382
H         17.39922        24.73432         2.83132
O          2.81883        10.88605         2.56322
H          3.58257        11.08242         3.15577
O         14.09723        10.04135        -1.48698
H         14.83117         9.90026        -2.12272
O          4.28118         8.01578         2.68059
H          4.75679         8.58388         3.32610
O         10.18161         5.66227         2.51403
H          9.44325         5.26087         3.01676
O          7.99806        15.92987         1.91583
H          8.38095        15.41688         2.69383
O          2.50767        26.98161         2.11848
H          2.85735        26.09993         2.38894
O         13.92882        15.31710         2.18594
H         13.05414        15.45956         2.64489
O         11.21776        29.13614         2.74205
H         11.62561        28.28170         3.02532
O          5.73359        15.69549        -2.07306
H          6.59690        15.42537        -2.46554
O          1.07646        18.92057        -2.53193
H          1.82602        19.42981        -2.90844
O         10.62918         6.38755        -1.02857
H         11.35511         6.81344        -1.53007
O         15.20901        17.58495        -2.09845
H         14.94994        18.17262        -2.84513
O         19.70937        27.00653         2.46389
H         19.47278        27.89480         2.80446
H          1.63198         2.68246        -1.89986
H         -0.23674         4.10777        -2.64336
H         -0.42079         6.45867        -1.98504
H         -0.81244         8.11694        -1.00662
H         -0.94563        10.51411        -0.51376
H         -1.07711        12.30939         0.36999
H         -1.07460        14.74337         0.22263
H         -1.05432        16.64720         0.12789
H         -1.09972        18.91577        -0.66299
H         -0.91787        20.73345        -0.11488
H         -0.93721        23.15061         0.18996
H         -0.98781        25.30060        -0.85280
H         -0.93802        27.71631        -0.29228
H          0.23143        29.73367         0.60502
H          3.86834         2.58067        -0.94420
H          2.39352        30.88582         0.91064
H          6.24288         2.46207         0.02543
H          4.85257        30.80060         1.02388
H          8.61178         2.44279         0.32501
H          7.27937        30.79666         0.98246
H         11.08155         2.42198         0.39703
H          9.68030        30.80363         1.18585
H         13.49705         2.39850         0.19286
H         12.22926        30.84942         0.71301
H         16.03467         2.37838         0.22658
H         14.68336        30.89777         0.25921
H         18.47060         2.39135        -0.16186
H         17.15097        30.90134        -0.01835
H         20.56214         3.65088        -0.51032
H         21.79597         5.78646        -0.58907
H         21.81995         8.24209        -0.63536
H         21.82965        10.11433        -0.74227
H         21.86307        12.54005        -0.87063
H         21.78679        14.42662        -1.40794
H         21.83569        16.86882        -1.35401
H         21.98007        18.75146        -0.52672
H         21.99625        21.18418        -0.63275
H         21.80197        23.27322        -0.85626
H         21.77839        25.61911        -0.14576
H         21.92539        27.43125         0.82637
H         21.78611        29.76430         0.08228
H         19.59467        30.91734        -0.15671
