         261
 CSIRO Nanostructure Databank - Neutral Graphene Oxide Data Set
C        -11.16182         0.65974        -0.55045
C         -9.86155         1.35897        -0.18498
C         -8.69470         0.70591        -0.90115
C         -7.42594         1.47797        -1.11064
C         -6.11491         0.70666        -0.90475
C         -4.84015         1.46735        -0.55480
C         -3.58295         0.64662        -0.15541
C         -2.45099         1.50389         0.41916
C         -1.29612         0.77504         1.06269
C          0.03783         1.48052         1.05542
C          1.25037         0.75977         1.59788
C          2.56343         1.52341         1.61994
C          3.85128         0.75362         1.43047
C          5.07632         1.46057         0.87825
C          6.33421         0.67640         0.71532
C          7.45211         1.26353        -0.09567
C          8.81632         0.73289         0.25817
C          9.90849         1.30382        -0.60333
C         10.81529         0.44199        -1.36333
C         -9.84513         2.86712        -0.21056
C         -8.70420         3.62798        -0.33133
C         -7.48529         3.03230        -1.09888
C         -6.11081         3.68634        -0.86246
C         -4.90873         2.94590        -0.28458
C         -3.96349         3.53591         0.82555
C         -2.55054         2.96787         0.66716
C         -1.36663         3.66426         1.36223
C         -0.02429         2.96856         1.06986
C          1.24328         3.76153         1.20635
C          2.53968         3.02031         1.34257
C          3.66947         3.56313         0.49623
C          4.86203         2.74511         0.09573
C          5.99111         3.34061        -0.86060
C          7.36051         2.65663        -0.62383
C          8.65996         3.44807        -0.34397
C          9.81301         2.63436        -0.89637
C         -8.81432         5.06397        -0.12644
C         -7.73854         5.90699         0.23401
C         -6.58066         5.21679         0.85510
C         -5.23436         5.88370         0.91532
C         -3.96074         5.07797         1.02549
C         -2.63551         5.86447         1.03137
C         -1.37710         5.08537         0.79892
C         -0.13483         5.77417         0.33792
C          1.18686         5.04791         0.41671
C          2.44982         5.76264         0.10073
C          3.75048         5.05401         0.35114
C          4.96844         5.68371        -0.21165
C          6.05093         4.91012        -0.93612
C          7.40339         5.57961        -0.76736
C          8.58084         4.89884        -0.74892
C         -7.71380         7.31333         0.17929
C         -6.41688         8.01608         0.02872
C         -5.12729         7.25262         0.29932
C         -3.79682         7.98418         0.22792
C         -2.57585         7.35249         0.82210
C         -1.22020         8.11623         0.70082
C         -0.11014         7.25801         0.05304
C          1.17717         7.97191        -0.19476
C          2.50308         7.27765         0.09812
C          3.62329         7.82970        -0.78095
C          4.88301         6.98811        -0.99057
C          6.18803         7.75023        -0.88588
C          7.35802         7.03719        -0.84289
C         -6.27460         9.49080        -0.02657
C         -5.08319        10.13313        -0.09925
C         -3.76454         9.45324        -0.11762
C         -2.46672        10.18741        -0.00957
C         -1.28249         9.51769         0.10338
C          0.02885        10.16225        -0.03860
C          1.19755         9.46333        -0.11534
C          2.56147        10.14214        -0.14714
C          3.67540         9.32585        -0.81967
C          5.02351         9.94079        -0.92917
C          6.16120         9.20282        -0.93431
C        -11.21906        -0.67808        -0.69841
C         -9.99192        -1.52689        -0.68313
C         -8.69517        -0.80288        -0.75940
C         -7.48886        -1.42866        -0.14626
C         -6.18867        -0.72969        -0.43826
C         -5.07253        -1.35495         0.33594
C         -3.81542        -0.63262         0.61665
C         -2.56783        -1.46843         0.80897
C         -1.31434        -0.71321         1.13787
C          0.01808        -1.36731         0.88921
C          1.23280        -0.74875         1.53579
C          2.53163        -1.51562         1.47069
C          3.84099        -0.77312         1.42290
C          5.07638        -1.56176         1.03950
C          6.36116        -0.82421         0.88090
C          7.68963        -1.48909         1.16207
C          8.89754        -0.58458         0.94172
C         10.22638        -1.79432        -0.41453
C         10.86883        -0.91923        -1.39196
C         -9.96999        -2.95711        -0.25846
C         -8.82006        -3.61805         0.02858
C         -7.54519        -2.87762         0.29025
C         -6.24570        -3.65975         0.41523
C         -4.98777        -2.86124         0.30581
C         -3.77721        -3.31756        -0.52258
C         -2.50869        -2.82276         0.17826
C         -1.19387        -3.38374        -0.26336
C          0.07500        -2.69819         0.20726
C          1.37210        -3.46926         0.16924
C          2.50214        -2.97048         1.03266
C          3.77252        -3.76813         1.07329
C          5.08173        -3.04836         1.37024
C          6.39187        -3.79920         1.32325
C          7.73335        -3.00996         1.18266
C          9.04555        -3.71099         0.66987
C          9.63135        -3.00064        -0.56260
C         -8.80498        -5.13201         0.18813
C         -7.50856        -5.79353        -0.24950
C         -6.19572        -5.15218         0.10677
C         -5.04697        -5.60324        -0.77821
C         -3.78309        -4.81329        -0.88273
C         -2.45648        -5.55164        -1.05649
C         -1.17685        -4.79253        -0.77015
C          0.05894        -5.58697        -0.46557
C          1.38052        -4.87824        -0.33953
C          2.58084        -5.77157        -0.14608
C          3.82181        -5.14549         0.41955
C          5.16477        -5.71212         0.07126
C          6.37466        -5.26442         0.89796
C          7.67560        -5.80362         0.37821
C          8.86196        -5.18354         0.38422
C         -7.46970        -7.13706        -0.57902
C         -6.24164        -7.85278        -0.67057
C         -4.95743        -7.08318        -0.48434
C         -3.72639        -7.80817        -1.00221
C         -2.42197        -7.05372        -1.18616
C         -1.10147        -7.84128        -1.12957
C          0.05248        -7.06832        -0.53253
C          1.27171        -7.82748        -1.00872
C          2.60971        -7.08196        -0.91563
C          3.90410        -7.84257        -0.86196
C          5.18676        -7.12454        -0.43632
C          6.42063        -7.95515        -0.06816
C          7.29479        -7.15255         0.92563
C         -6.17209        -9.26151        -0.49062
C         -4.97333        -9.92299        -0.32259
C         -3.69743        -9.29889        -0.71526
C         -2.39884        -9.90307        -0.40426
C         -1.18881        -9.22963        -0.51884
C          0.04184        -9.85431        -0.20061
C          1.30338        -9.23427        -0.45359
C          2.49669        -9.90273        -0.33575
C          3.84871        -9.37631        -0.78865
C          4.90944        -9.93856         0.13332
C          6.03447        -9.30599         0.47606
O          4.77229         5.67004         1.20911
O          8.98960         0.61819         1.72496
O          1.69791        -3.78199        -1.23068
O          7.42240         1.48601        -1.52825
O         -5.78350        -5.86383         1.37580
O         -5.37490        -3.42688         1.56945
O          0.98903        -0.04880         2.77332
O          5.73174         5.27233        -2.35092
O          4.83011         6.44148        -2.35654
O         -4.67632         5.53937         2.21209
O          1.75752         5.03598        -0.93903
O          5.63740        -1.37364        -0.29735
O          5.47776        -5.98741        -1.32081
O         -1.07077        -3.67167        -1.69046
O         -4.37427         2.42889        -1.55135
O          0.31414         7.52379        -1.29606
O          2.82052        -3.80908         2.17599
O         -2.12468         2.49070        -0.61472
O         -4.83373        -0.71115         1.63192
O          0.19539         2.21478        -0.17708
O         -5.91812        -0.40423        -1.82521
O          3.43912         1.24198         2.73684
O         -1.53634         0.09918         2.32695
O          6.12817         1.50742         1.89411
O         10.15289        -1.22582         0.88017
O          3.40738        -7.25258        -2.10850
O         -5.70148         7.25781        -1.02924
O          3.20286         8.55258        -1.96648
O         -2.42916        -6.19926        -2.36043
O         -1.02525         5.09155        -0.61091
O         -7.67158        -1.78832         1.25514
O          3.64560         2.73489        -0.70718
O         -4.85130        -6.95755         1.00539
O         -2.67313        -2.68405         1.61371
O         -8.27105         1.05785        -2.22664
O         -0.59406        -8.02700        -2.50683
O         -7.80427         3.42561        -2.45002
O          3.32552        -1.32855         2.66250
O         -6.76736         4.16020         1.47358
O         -3.91355        -8.71861        -2.08624
O          0.23559        -1.44769        -0.55861
O          7.88129        -2.23245         2.40120
O          0.90160        -7.94535        -2.44063
O          2.99300        -6.06296         1.21813
O          5.73172        -3.49332         2.57775
O         -3.58906         8.40879        -1.14624
O         -4.70671        -5.04020        -2.02754
O         -0.10813        -6.45002         0.74752
O          6.45215        -6.40140         1.90830
O          2.01026         3.81955         2.43771
O         -9.21523        -1.43989        -1.95895
O         -0.72805         8.33557         1.98944
O         -2.66761         6.79263         2.15001
O          2.98306        10.36142         1.21744
H          2.25038        10.79222         1.70602
O          2.82524         7.58921         1.47349
H          2.93170         8.56811         1.58339
O          7.21038        -8.16519        -1.25649
H          7.06097        -7.39572        -1.84860
O         -3.04299         0.14212        -1.39746
H         -2.87486         0.92165        -1.97640
O         -3.90169        -2.58446        -1.74926
H         -3.16728        -2.83478        -2.35178
O         -9.60236         1.01816         1.22017
H        -10.32023         1.39642         1.77026
O          9.99659        -3.68196         1.74048
H          9.77229        -2.92761         2.33244
O         -1.51609         3.66358         2.77942
H         -2.41011         3.98582         3.02378
O         -4.42149         2.95715         2.05833
H         -5.25738         3.42395         2.32081
O          8.77377         3.52782         1.10392
H          9.04960         2.66295         1.47903
O          5.57682         2.96546        -2.16994
H          5.80691         2.02241        -2.32086
O         -5.88204         4.73934        -1.44354
H         -7.29535         4.24803        -2.64482
O          4.07634        -9.90142        -2.11672
H          3.64088        -9.28583        -2.74852
O         -9.91937        -5.73037        -0.46181
H         -9.88273        -5.51043        -1.41528
H         11.47203        -1.39598        -2.18015
H         11.41605         0.97846        -2.11591
H         10.52698         3.10109        -1.59259
H          9.52412         5.46726        -0.73492
H          8.31865         7.57558        -0.82182
H          7.13371         9.71812        -0.96677
H          5.08768        11.03930        -0.94254
H          2.47383        11.14105        -0.66176
H          0.05268        11.26379        -0.09821
H         -2.46825        11.25683        -0.27715
H         -5.07955        11.23411        -0.10003
H         -7.19995        10.08467         0.02411
H         -8.63468         7.86211        -0.07693
H         -9.80272         5.52072        -0.30431
H        -10.75354         3.36239         0.17597
H        -12.08506         1.25763        -0.60663
H        -12.18541        -1.16935        -0.89356
H        -10.89897        -3.53950        -0.37240
H         -8.91537        -5.35715         1.28871
H         -8.41713        -7.68571        -0.69352
H         -7.11385        -9.81371        -0.35551
H         -4.96666       -10.97946        -0.01844
H         -2.40101       -10.91407         0.03015
H          0.02927       -10.88480         0.18386
H          2.47347       -10.95633        -0.01503
H          4.71983       -10.94897         0.52773
H          6.75917        -9.80395         1.13888
H          8.08452        -7.76368         1.41703
H          9.78904        -5.77272         0.32066
H          9.62871        -3.51359        -1.53444
