         210
 CSIRO Nanostructure Databank - Neutral Graphene Oxide Data Set
C         30.37061        31.79420         0.59809
C         30.45763        33.03254         0.40951
C         30.51524        36.05299        -0.42028
C         30.56516        37.31127        -0.65476
C         30.43210        40.35888        -0.40440
C         30.43722        41.52321         0.01791
C         32.77303        28.98750         0.79075
C         31.65168        29.55483         0.79793
C         32.77573        31.67343         0.54611
C         31.50694        30.95500         0.66342
C         32.80602        33.09438         0.32687
C         31.58897        33.84757         0.20572
C         32.88429        35.87211        -0.51498
C         31.58944        35.20959        -0.19757
C         32.90753        37.39157        -0.79831
C         31.64119        38.15767        -0.71264
C         32.86896        40.26753        -0.09413
C         31.68133        39.64419        -0.87207
C         32.75907        41.60303         0.47443
C         31.52630        42.31003         0.50043
C         32.70051        44.38004         0.91701
C         31.66841        43.68039         0.85897
C         35.44100        27.38060         0.61087
C         35.29919        28.79506         0.66942
C         34.07158        29.52309         0.71612
C         35.26608        31.67635         0.60956
C         34.02618        30.95673         0.60845
C         35.30279        33.07606         0.44745
C         34.07123        33.80374         0.23269
C         35.33718        35.93196        -0.01341
C         34.11554        35.17830        -0.08119
C         35.35623        37.35106        -0.12901
C         34.21158        38.18382        -0.71082
C         35.30624        40.21325         0.31942
C         34.06457        39.56245        -0.06253
C         35.30029        41.63547         0.60398
C         34.00899        42.26822         0.90432
C         35.28652        44.55060         0.84641
C         34.04058        43.85361         1.14354
C         35.43470        45.95113         0.69235
C         37.83458        27.33120         0.43489
C         36.53466        26.78133         0.50619
C         37.80691        28.77030         0.54292
C         36.55328        29.45837         0.66484
C         37.83737        31.66461         0.74294
C         36.51667        30.92321         0.84973
C         37.79596        33.10297         0.44844
C         36.56033        33.79186         0.39562
C         37.79064        35.92873         0.31453
C         36.56335        35.22194         0.24523
C         37.78962        37.36175         0.30903
C         36.54977        38.06142         0.12830
C         37.77416        40.19002         0.56802
C         36.50895        39.49178         0.30293
C         37.76152        41.68979         0.63727
C         36.47004        42.39873         0.61600
C         37.75894        44.55760         0.40032
C         36.50537        43.84706         0.64272
C         37.79727        45.99302         0.29419
C         36.51281        46.55605         0.49134
C         40.21818        24.55621        -0.18836
C         39.19365        25.23146         0.06054
C         40.28511        27.31479         0.02196
C         39.03849        26.63008         0.20073
C         40.28700        28.74930         0.18184
C         39.06301        29.46923         0.44977
C         40.27379        31.62608         0.35776
C         39.08328        30.90745         0.48814
C         40.27993        33.06120         0.30749
C         39.03544        33.78391         0.31580
C         40.27266        35.89346         0.38934
C         39.04038        35.20986         0.33719
C         40.28070        37.34439         0.75815
C         39.01705        38.07267         0.40290
C         40.28056        40.18850         0.32719
C         39.05451        39.47818         0.35203
C         40.27000        41.64599         0.04003
C         38.97495        42.40551         0.14922
C         40.20858        44.54860        -0.08876
C         38.99621        43.87720         0.20747
C         40.19605        45.95540        -0.28765
C         38.98632        46.66327        -0.07506
C         40.14429        48.69027        -0.66494
C         39.11870        48.07872        -0.28915
C         42.74397        24.58847        -0.73288
C         41.49197        25.14239        -0.40382
C         42.71191        27.34717        -0.52317
C         41.49958        26.60162        -0.29053
C         42.72394        28.78579        -0.28272
C         41.51676        29.44782         0.07635
C         42.78714        31.64493         0.13918
C         41.56719        30.87858         0.55846
C         42.76785        33.05222         0.10093
C         41.50500        33.77583         0.21169
C         42.73213        35.94789         0.17875
C         41.50027        35.20039         0.26107
C         42.75383        37.34957         0.23322
C         41.53247        38.08320         0.37478
C         42.79333        40.22699         0.35124
C         41.51381        39.47642         0.31011
C         42.78368        41.72766         0.26195
C         41.51083        42.44576         0.05525
C         42.75026        44.56629        -0.13285
C         41.48409        43.81759        -0.10737
C         42.73705        45.95491        -0.38091
C         41.43437        46.58669        -0.90226
C         42.71154        48.66365        -1.05203
C         41.43995        48.19422        -0.87920
C         43.76754        25.29687        -0.92824
C         45.13187        27.43025        -1.25747
C         43.91685        26.68941        -0.92225
C         45.17835        28.90483        -0.81499
C         43.94132        29.52234        -0.33084
C         45.22331        31.65652        -0.23244
C         43.99042        30.94124        -0.10767
C         45.22130        33.07206        -0.11455
C         43.98829        33.75359        -0.04521
C         45.23273        35.92116         0.18752
C         43.97827        35.23508        -0.27401
C         45.20891        37.34174         0.20631
C         44.01506        38.07095         0.10913
C         45.24067        40.23407        -0.13563
C         44.05701        39.51192         0.06478
C         45.27750        41.69073        -0.09112
C         44.04866        42.43584        -0.00872
C         45.26781        44.55764         0.15658
C         43.99792        43.83847        -0.01961
C         45.21844        46.14082         0.04857
C         43.95380        46.72628        -0.38852
C         43.80520        47.99949        -0.93981
C         47.57679        27.51024        -1.08472
C         46.49682        26.91148        -1.19017
C         47.73999        28.76257        -0.25335
C         46.47052        29.57719        -0.52262
C         47.76098        31.72387        -0.53435
C         46.47491        30.93587        -0.35852
C         47.69536        33.11631         0.03382
C         46.48068        33.80125         0.04811
C         47.65637        35.94600         0.66335
C         46.44433        35.22895         0.29342
C         47.70325        37.35173         0.54164
C         46.49708        38.01862         0.00633
C         47.84408        40.20325        -0.49565
C         46.49746        39.48154        -0.37783
C         47.77790        41.69486        -0.25548
C         46.51406        42.38676        -0.20627
C         47.72844        44.52136        -0.34725
C         46.53635        43.83130        -0.09574
C         47.52973        45.92186        -0.29847
C         46.52834        46.66842        -0.32817
C         50.29929        29.01676        -0.28161
C         49.00545        29.56007        -0.37013
C         50.24301        31.67657         0.09758
C         49.03077        30.95988        -0.18745
C         50.16601        33.07678         0.49420
C         48.90183        33.76424         0.46020
C         49.90820        35.59182         1.67114
C         48.80929        35.09810         0.95133
C         49.91095        37.79095         1.62837
C         48.83534        38.23727         0.82212
C         50.17896        40.27495         0.43521
C         48.95234        39.55272         0.31294
C         50.24482        41.66158         0.00406
C         48.99845        42.36084        -0.29487
C         50.28182        44.41524        -0.40134
C         48.96190        43.81546        -0.80798
C         51.41259        29.59069        -0.13625
C         52.62022        31.80529         0.46191
C         51.51874        30.97015         0.12817
C         52.50309        33.00051         0.80942
C         51.33659        33.79341         0.95251
C         52.17928        36.07356         1.91081
C         51.21241        35.06345         1.56830
C         52.17187        37.31469         1.94050
C         51.21237        38.32468         1.56468
C         52.50105        40.40919         0.84266
C         51.35164        39.59510         0.95972
C         52.59015        41.60694         0.47731
C         51.48351        42.38802         0.07136
C         51.33381        43.77664        -0.24763
O         37.23991        31.35121         2.05946
O         45.00826        28.46592        -2.24456
O         34.03753        42.90731         2.22149
O         37.89183        40.91336         1.87487
O         32.95833        36.41365        -1.89218
O         42.85268        41.04339         1.58739
O         45.22310        45.46569         1.30878
O         39.43063        41.91686        -1.16161
O         46.46558        38.45837        -1.43800
O         49.68181        36.70830         2.49253
O         40.29847        37.34096         2.24927
H         40.27564        38.27759         2.54403
O         31.90075        39.94224        -2.24821
H         31.29851        39.39518        -2.79385
O         34.61575        38.45229        -2.08191
H         34.37369        37.65560        -2.60783
O         48.90830        43.74714        -2.23572
H         49.64474        43.18303        -2.55207
O         43.98642        35.37945        -1.74860
H         44.16328        36.32368        -1.95202
O         47.65575        28.37359         1.13016
H         48.47836        27.89485         1.36664
O         48.27277        40.11927        -1.88867
H         47.86297        39.29980        -2.25802
O         41.70292        30.76647         2.03525
H         40.86708        30.38286         2.37935
O         41.37994        46.24682        -2.30768
H         42.18353        46.60366        -2.74244
O         47.83676        31.90723        -1.99096
H         48.58317        32.51363        -2.18258
