         232
 CSIRO Nanostructure Databank - Neutral Graphene Oxide Data Set
C         -9.95592         0.91516         1.50061
C         -9.73516         1.48156         0.10539
C         -8.71030         0.66010        -0.68988
C         -7.62119         1.33044        -1.56625
C         -6.42511         0.39841        -1.75424
C         -4.48543         1.50233        -1.65321
C         -3.52104         0.68423        -1.10864
C         -2.27812         1.38043        -0.69461
C         -1.03329         0.65860        -0.27907
C          0.05492         1.42158         0.37194
C          1.24086         0.67146         0.77062
C          2.52348         1.44990         0.92225
C          3.78161         0.73763         0.49402
C          5.01341         1.45114         1.02016
C          6.30525         0.76149         0.78631
C          7.43553         1.46880         0.55762
C          8.71940         0.73188         0.39952
C          9.96466         1.51166         0.08785
C         11.04626         0.80507        -0.63343
C         -9.43166         2.94310         0.06829
C         -8.36776         3.53888        -0.57970
C         -7.23612         2.77558        -1.11398
C         -6.02539         3.47447        -1.30481
C         -4.68306         2.90321        -1.36344
C         -3.56737         3.60314        -0.84144
C         -2.41742         2.82173        -0.32357
C         -1.19569         3.54822         0.16187
C          0.07289         2.81522         0.37353
C          1.25704         3.57994         0.58941
C          2.52251         2.92515         0.75906
C          3.71072         3.63312         0.85793
C          4.98419         2.94298         1.16401
C          6.31754         3.71182         1.13340
C          7.34897         2.95493         0.24410
C          8.68797         3.67224         0.22963
C          9.87612         2.98186         0.04456
C         -8.37662         4.98492        -0.57990
C         -7.27117         5.72121        -0.93180
C         -6.04970         4.96761        -1.26613
C         -4.75200         5.75863        -0.99053
C         -3.56651         4.98853        -0.61348
C         -2.40403         5.68651        -0.17451
C         -1.16589         5.00977         0.01177
C          0.01487         5.73062         0.09849
C          1.25632         5.00528         0.35349
C          2.44566         5.69659         0.28752
C          3.69927         5.13885         0.90312
C          4.99142         5.76155         0.42093
C          6.18573         5.12097         0.57686
C          7.43571         5.82368         0.25806
C          8.65803         5.08627         0.23019
C         -7.24393         7.16351        -0.89072
C         -6.07468         7.88430        -0.66241
C         -4.86038         7.12378        -0.45845
C         -3.75383         7.64477         0.18730
C         -2.44627         7.08657         0.06378
C         -1.25409         7.87494         0.15450
C         -0.00154         7.18018         0.07760
C          1.23159         7.88268         0.02993
C          2.39952         7.01184        -0.43101
C          3.74272         7.64644        -0.49050
C          4.93218         7.11331        -0.12059
C          6.18315         7.96862        -0.30080
C          7.43308         7.18014        -0.01771
C         -6.04345         9.34040        -0.76696
C         -4.96883        10.18423        -0.63573
C         -3.70785         9.78433        -0.03536
C         -2.40601        10.12398        -0.30541
C         -1.24378         9.31917         0.08791
C         -0.00136         9.96481         0.21877
C          1.23940         9.28489         0.23728
C          2.46096        10.03000         0.60603
C          3.69372         9.76671         0.09288
C          5.00400        10.05638         0.67246
C          6.08667         9.25177         0.53776
C         -9.84031        -0.40174         1.78852
C         -9.22536        -1.35480         0.87648
C         -8.56642        -0.78135        -0.32580
C         -7.43670        -1.58377        -0.88912
C         -6.20457        -0.86839        -1.29436
C         -4.90087        -1.57801        -1.17625
C         -3.64125        -0.78060        -0.85953
C         -2.38317        -1.49860        -0.37438
C         -1.07298        -0.81472        -0.12452
C          0.00987        -1.50096         0.38182
C          1.27956        -0.80311         0.59831
C          2.49236        -1.45507         0.75910
C          3.76884        -0.75192         0.76692
C          4.97677        -1.41858         0.70998
C          6.32860        -0.74996         0.91831
C          7.42347        -1.33554         0.05296
C          8.59897        -0.66655        -0.09537
C          9.74942        -1.29619        -0.74065
C         10.94535        -0.50258        -0.97281
C         -9.13569        -2.70001         1.12436
C         -8.36627        -3.62636         0.29913
C         -7.43420        -3.04738        -0.71379
C         -6.14956        -3.78541        -1.09412
C         -4.89426        -2.93166        -0.91872
C         -3.62573        -3.70337        -0.74145
C         -2.32347        -2.99045        -0.52930
C         -1.16866        -3.73720         0.04778
C         -0.12868        -2.95118         0.78355
C          1.19961        -3.67925         0.98414
C          2.49989        -2.91485         1.03986
C          3.81731        -3.64413         0.93057
C          5.01500        -2.85874         0.52813
C          6.10288        -3.46844        -0.03585
C          7.19256        -2.63268        -0.67713
C          8.47527        -3.40030        -0.95120
C          9.69387        -2.63287        -1.07135
C         -8.36253        -4.97308         0.48237
C         -7.47240        -5.85612        -0.38807
C         -6.11997        -5.16286        -0.47456
C         -4.95830        -5.80797        -0.24284
C         -3.66960        -5.04767        -0.01643
C         -2.39337        -5.87475        -0.11922
C         -1.17324        -5.11325         0.15772
C          0.05696        -5.83768         0.50897
C          1.23222        -5.14826         0.75980
C          2.51142        -5.88109         0.87049
C          3.82008        -5.13028         0.79899
C          5.06038        -5.84379         0.24292
C          6.01401        -4.87941        -0.47058
C          7.19016        -5.51858        -1.15333
C          8.44312        -4.74172        -1.22090
C         -7.39196        -7.26949         0.14398
C         -6.22775        -7.97070         0.18185
C         -4.96577        -7.28697        -0.18703
C         -3.66894        -8.01859        -0.11379
C         -2.42030        -7.23578         0.02047
C         -1.25150        -7.99960         0.59359
C          0.05177        -7.28368         0.40754
C          1.21563        -8.00412         0.25526
C          2.50901        -7.34498         0.47823
C          3.69717        -7.96071        -0.12735
C          4.72990        -7.02403        -0.70105
C          6.01831        -7.71512        -1.11369
C          7.16666        -6.99647        -1.28690
C         -6.14247        -9.38111         0.51365
C         -4.96286       -10.06940         0.52174
C         -3.67968        -9.44918         0.28397
C         -2.49375       -10.14627         0.31275
C         -1.22680        -9.46337         0.21322
C         -0.04689       -10.11375        -0.05005
C          1.22212        -9.42129        -0.05078
C          2.42519       -10.04325        -0.35828
C          3.64250        -9.28335        -0.52021
C          4.83574        -9.87690        -1.11058
C          5.96130        -9.14846        -1.34331
O         -2.23915         3.08565         1.10935
O         -1.21291         1.13292        -1.69232
O         -8.21865         1.54616        -2.86437
H         -8.79540         0.76919        -3.04547
O          6.69287        -1.06269         2.29519
H          6.03123        -0.64727         2.88818
O         -9.44416        -0.35826        -1.44528
O          6.81101         3.04180        -1.10705
H          7.50622         2.76967        -1.74169
O         -4.34520        -7.82900        -1.41823
O         -1.50955        -8.00153         2.04345
H         -1.52735        -7.06680         2.34346
O          4.04260        -6.50464        -1.87396
H          4.70435        -5.99054        -2.39967
O        -11.03371         1.36997        -0.54273
H        -11.03227         0.49704        -1.00615
O          3.63227         5.49513         2.33860
H          2.95260         4.92499         2.75842
O         -2.08776        -2.67395         2.20857
H         -2.57494        -3.54790         1.98897
O          2.61126        -6.91678         1.89898
O          3.72802         8.94081        -1.06344
O         -8.07180        -5.93503        -1.70886
H         -7.49336        -5.42346        -2.32730
O          6.06408        -4.90620        -1.95673
O          2.06605         6.69194        -1.83267
H          2.15840         7.52533        -2.34315
O          6.83409         3.80129         2.46672
H          6.40586         3.09007         2.99685
O          6.65682        -2.24225        -1.98917
H          6.40761        -3.08960        -2.43667
O         -5.26295         5.56103        -2.34094
O          3.80091         0.87976        -0.95744
H          4.58460         0.40741        -1.31112
O          6.29916         8.38133        -1.68930
H          5.45766         8.84145        -1.91607
O         -3.70034        -4.69440         1.38126
O          1.82960         1.01578         2.10480
O          5.79198        -6.38384         1.35951
H          5.49961        -5.89749         2.16515
O         -6.21104        -4.07098        -2.52681
H         -6.77854        -3.36076        -2.92077
O         -3.88638         8.79683         0.96219
O         -8.02570        -2.47343        -1.92994
O          4.87672         2.04465         2.34942
O         -3.37699        -1.01627         0.59173
O         -0.70052        -2.95082         2.23775
O         -5.42767         0.97547        -2.53108
O          9.70059         0.96273         1.45518
O          1.79487        -3.27390         2.26586
O          4.11535        -4.49815         2.08987
O         -2.69921        -3.52492        -1.85429
H         11.78410        -0.99431        -1.48845
H         11.95369         1.37330        -0.88801
H         10.80834         3.55170        -0.09882
H          9.60512         5.63666         0.11747
H          8.39124         7.67974        -0.23145
H          7.00458         9.55253         1.06901
H          5.07388        10.92657         1.34552
H          2.36380        10.74987         1.43351
H          0.01371        11.06417         0.25916
H         -2.20047        10.99812        -0.94261
H         -5.07631        11.22112        -0.99173
H         -6.97145         9.78541        -1.16262
H         -8.20466         7.69745        -0.95104
H         -9.29385         5.49096        -0.24447
H        -10.20795         3.59944         0.49146
H        -10.41377         1.58817         2.24124
H        -10.16405        -0.77612         2.77218
H         -9.64535        -3.11567         2.00785
H         -9.01284        -5.43152         1.24436
H         -8.34276        -7.76996         0.38640
H         -7.08059        -9.91107         0.73757
H         -4.96940       -11.14363         0.76207
H         -2.50172       -11.23989         0.44403
H         -0.05625       -11.19034        -0.28043
H          2.43396       -11.11336        -0.61395
H          4.82339       -10.95381        -1.33517
H          6.86437        -9.64166        -1.73425
H          8.09641        -7.50309        -1.58913
H          9.37212        -5.27229        -1.48217
H         10.59562        -3.13993        -1.44802
