         720
 CSIRO Nanostructure Databank - Neutral Graphene Oxide Data Set
C         22.87194        27.30232         0.77006
C         22.85193        28.64763         0.68200
C         23.02344        31.67020         1.22750
C         23.11740        32.97210         1.55372
C         23.32977        35.99179         1.92524
C         23.41474        37.32033         2.14304
C         23.76521        40.15597         2.92771
C         23.80802        41.49976         3.18453
C         24.08824        44.28745         4.00333
C         24.11329        45.56013         4.52526
C         25.19135        24.38240         0.28581
C         24.04808        25.11819         0.58277
C         25.30136        27.17640         0.28143
C         24.08296        26.52488         0.54200
C         25.34348        28.66183        -0.04146
C         24.04964        29.42992         0.29794
C         25.49869        31.51513         0.70349
C         24.15515        30.89655         0.65788
C         25.61219        32.93130         1.07212
C         24.41922        33.69144         1.57488
C         25.65996        35.81670         1.21112
C         24.49621        35.18885         1.56187
C         25.70329        37.30873         1.21433
C         24.77812        37.97075         2.21252
C         25.85080        40.20489         1.66697
C         24.80043        39.48696         2.17594
C         25.86014        41.72276         1.72136
C         24.86969        42.32032         2.70798
C         26.15252        44.38571         2.54539
C         24.96585        43.68735         3.01456
C         26.23371        45.77833         2.56422
C         24.86515        46.63407         3.94144
C         26.56859        48.41028         3.93453
C         25.49038        47.71594         4.54705
C         27.71204        22.80458         0.10353
C         27.61232        24.21451        -0.43645
C         26.42439        25.01750         0.06479
C         27.76421        27.15672        -0.03978
C         26.49190        26.43097         0.12268
C         27.81388        28.52106         0.13131
C         26.59183        29.27499         0.62393
C         27.91840        31.46088         0.42399
C         26.66470        30.78881         0.47284
C         27.98026        32.89900         0.43607
C         26.83454        33.63604         0.68693
C         28.12887        35.78794         0.75817
C         26.77731        35.12923         0.45646
C         28.16193        37.30616         0.50139
C         26.90403        38.06559         0.72805
C         28.33423        40.15430         1.19233
C         26.96740        39.60454         0.82966
C         28.44121        41.54482         1.63489
C         27.26749        42.28007         1.90929
C         28.59096        44.36140         2.10225
C         27.34865        43.66157         2.21064
C         28.63986        45.77771         2.31725
C         27.45124        46.49475         2.59415
C         28.68411        48.63678         2.66774
C         27.48894        47.88068         3.01648
C         28.68453        50.05203         2.74244
C         30.02372        22.63392        -0.80318
C         28.81968        22.07375        -0.07556
C         30.17230        24.12325        -0.43359
C         28.93917        24.93495        -0.21972
C         30.18405        27.05435        -0.56526
C         28.98604        26.42327        -0.33124
C         30.27766        28.52284        -0.64596
C         29.03412        29.27232        -0.20751
C         30.47838        31.36898         0.06912
C         29.14842        30.67132         0.30541
C         30.44724        32.83053        -0.06435
C         29.24349        33.59723         0.15562
C         30.54872        35.69315         0.00879
C         29.26492        34.99068         0.14357
C         30.61416        37.16920         0.30128
C         29.35932        37.97799         0.50413
C         30.76876        39.97592         1.16569
C         29.45693        39.41959         0.85459
C         31.00187        41.38368         1.76047
C         29.71439        42.20799         1.72034
C         31.04898        44.35062         1.70011
C         29.78445        43.60905         1.85148
C         31.01713        45.80976         1.79146
C         29.87155        46.50715         2.15041
C         31.02896        48.73240         1.94183
C         29.86011        47.96777         2.23185
C         31.02321        50.15710         2.06611
C         29.81157        50.79137         2.44273
C         32.61189        19.75762        -0.66905
C         31.42353        20.42667        -0.77397
C         32.56470        22.62931        -0.93677
C         31.32701        21.89434        -0.42879
C         32.57780        24.11877        -0.98925
C         31.42351        24.83025        -0.80592
C         32.65021        27.01893        -1.36958
C         31.29485        26.27532        -1.22706
C         32.77810        28.47226        -1.01791
C         31.62493        29.18074        -0.64420
C         32.83473        31.31163        -0.67132
C         31.65705        30.60877        -0.43246
C         32.83768        32.73839        -0.69040
C         31.63961        33.48073        -0.43897
C         32.76963        35.48146        -1.17887
C         31.65832        34.90578        -0.57955
C         32.90470        37.73567        -0.71982
C         31.84842        37.99164         0.12073
C         33.75728        40.20549         0.84978
C         31.82534        39.11875         1.02771
C         33.56758        41.56403         0.97381
C         32.15605        42.18793         1.02865
C         33.54787        44.43126         1.30495
C         32.21708        43.67181         1.40358
C         33.37676        45.86913         0.86639
C         32.13715        46.59925         1.23545
C         33.40702        48.75591         1.29609
C         32.22084        48.06288         1.45862
C         33.48953        50.17888         1.67263
C         32.23527        50.91801         1.86121
C         33.46401        53.03606         1.55423
C         32.30841        52.31686         1.89743
C         35.32820        18.39761        -0.18279
C         35.09901        19.80895        -0.10386
C         33.85606        20.43480        -0.40208
C         34.99825        22.70675        -0.25731
C         33.85797        21.88615        -0.69154
C         34.90392        24.12590        -0.43692
C         33.87207        24.78746        -1.08978
C         35.26467        27.06063        -1.74583
C         33.94456        26.22640        -1.51025
C         35.30400        28.39122        -1.01975
C         34.10590        29.09535        -0.91056
C         35.06674        31.33185        -1.80281
C         34.17479        30.59507        -0.70659
C         35.25055        32.70328        -1.21927
C         34.05439        33.44107        -0.94943
C         35.20353        35.57762        -1.64164
C         34.02837        34.82526        -1.24599
C         35.22459        37.83740        -1.70289
C         34.20030        38.39785        -0.87187
C         35.49351        40.45408        -0.85806
C         34.52089        39.60904        -0.20877
C         35.77219        41.75859        -0.31278
C         34.80246        42.36268         0.67394
C         35.86461        44.49648         0.16935
C         34.52257        43.79112         0.28570
C         35.93360        45.88523         0.61141
C         34.64250        46.63974         0.61557
C         35.92652        48.86139         0.74479
C         34.64002        48.12628         0.78179
C         35.92534        50.26058         0.73188
C         34.77553        50.96855         1.33743
C         35.76423        53.13507         0.57657
C         34.66936        52.42378         1.15372
C         35.79329        54.57742         0.62644
C         37.73050        18.62957         0.30155
C         36.58768        17.84224        -0.04447
C         37.46479        19.97823         0.55108
C         36.23351        20.62521         0.26730
C         38.08501        23.11391        -0.34665
C         36.11207        22.05305         0.25788
C         37.82017        24.28320        -1.24205
C         36.82474        25.30792        -0.81519
C         37.77554        27.06662        -2.29566
C         36.59512        26.36488        -1.61356
C         37.74542        28.49606        -1.75299
C         36.68455        28.93109        -0.94273
C         37.76676        31.46356        -1.88492
C         36.45102        30.87202        -2.37091
C         37.74551        32.83176        -1.50171
C         36.49384        33.26323        -0.98982
C         37.79733        36.10865        -1.23820
C         36.46850        35.39100        -1.14275
C         37.76808        37.51850        -1.82768
C         36.56139        38.29940        -1.70645
C         37.96198        40.39635        -1.61102
C         36.67638        39.73699        -1.62652
C         38.03194        41.76775        -1.29045
C         36.90421        42.44772        -0.67691
C         38.21256        44.57714        -0.60353
C         36.99631        43.85308        -0.29121
C         38.27853        45.96464        -0.39217
C         37.21610        46.64176         0.38030
C         38.25766        48.88615        -0.30166
C         37.16767        48.13826         0.44479
C         37.96599        50.29029        -0.66579
C         36.94632        51.01603         0.08627
C         37.95790        53.17252        -0.62472
C         36.89130        52.44586        -0.01066
C         37.79975        54.66385        -0.86001
C         36.76945        55.29858         0.03086
C         40.28274        15.91651         0.51666
C         39.14340        16.65972         0.70452
C         40.31273        18.68761         0.02414
C         39.09476        18.04474         0.36917
C         40.36448        20.10009        -0.44657
C         39.32094        21.02761        -0.04079
C         40.29580        22.84903        -1.38749
C         39.11207        22.24046        -0.70808
C         40.03672        24.06791        -2.17724
C         39.04348        24.91896        -1.84274
C         40.37242        27.16020        -2.37231
C         39.10539        26.43663        -1.78925
C         40.24506        28.62704        -1.93266
C         39.00199        29.26460        -1.82858
C         40.21622        31.50438        -1.97314
C         38.96834        30.71925        -1.84529
C         40.19791        33.03560        -1.86756
C         38.98413        33.72179        -1.25342
C         40.16353        35.86126        -1.97634
C         38.97105        35.21009        -1.74281
C         40.17255        37.31087        -2.48111
C         38.98365        38.16613        -2.04652
C         40.32685        40.30044        -2.13479
C         39.10848        39.61477        -1.96458
C         40.40794        41.72544        -1.93515
C         39.25988        42.45740        -1.45784
C         40.45674        44.59918        -1.61761
C         39.31058        43.87457        -1.22684
C         40.44913        46.02871        -1.56533
C         39.33580        46.72793        -0.99297
C         40.39013        48.89875        -1.56045
C         39.30137        48.14436        -1.03188
C         40.38299        50.31456        -1.50825
C         39.15715        51.06708        -1.28679
C         40.30475        53.25031        -1.45423
C         39.14729        52.53635        -1.10921
C         40.37916        54.69848        -1.23343
C         39.11227        55.43743        -0.85411
C         40.28102        57.57686        -1.17605
C         39.09065        56.88418        -1.10250
C         42.50993        15.67733        -0.48105
C         41.44975        16.51021        -0.03409
C         42.71594        18.52620        -0.74293
C         41.50951        17.92909        -0.20615
C         42.93958        20.04051        -0.57894
C         41.65286        20.76426        -0.95027
C         42.97024        22.92374        -1.55058
C         41.66382        22.26453        -1.17946
C         43.01953        24.34258        -1.72928
C         41.94456        25.13116        -2.24683
C         42.84758        27.19639        -1.50302
C         41.70970        26.47483        -1.96524
C         42.74326        28.66343        -1.32627
C         41.45768        29.39151        -1.57826
C         42.70985        31.58094        -1.59418
C         41.50466        30.84852        -1.77455
C         42.70026        33.05850        -1.65617
C         41.48810        33.76686        -1.76274
C         42.69202        35.89431        -1.96997
C         41.46138        35.17774        -1.90820
C         42.68868        37.36313        -2.14371
C         41.48755        38.04583        -2.31625
C         42.79517        40.23616        -2.47863
C         41.49553        39.51205        -2.71413
C         42.77025        41.71436        -2.82880
C         41.60624        42.44742        -2.17159
C         42.81128        44.61076        -2.30788
C         41.63883        43.87866        -2.06187
C         42.86220        46.10985        -2.38592
C         41.57372        46.78521        -1.98642
C         42.84294        48.89452        -2.10279
C         41.58857        48.18123        -1.92613
C         42.79421        50.36748        -2.39518
C         41.64301        51.05383        -1.67350
C         42.75865        53.29329        -2.32088
C         41.58591        52.55489        -1.72253
C         42.73576        54.80582        -2.31393
C         41.40133        55.53376        -2.01203
C         42.75963        57.55098        -1.25962
C         41.50970        56.90263        -1.38444
C         43.56341        16.23652        -1.16168
C         45.72511        18.81586        -1.29662
C         43.66183        17.64911        -1.26302
C         45.49766        20.19101        -0.96490
C         44.20735        20.79259        -1.05249
C         45.34766        23.00991        -0.87587
C         44.15903        22.22705        -1.16723
C         45.27040        24.42542        -0.78898
C         44.13873        25.10059        -1.26094
C         45.26918        27.28733        -0.92240
C         44.06157        26.54115        -1.24217
C         45.31234        28.71874        -1.28435
C         43.99603        29.43895        -1.52317
C         45.24755        31.61363        -1.64566
C         43.93281        30.89830        -1.43254
C         45.14744        33.06525        -1.15429
C         43.90970        33.79540        -1.62174
C         45.26777        35.82936        -2.17085
C         43.91702        35.19450        -1.81498
C         45.24778        37.40659        -2.26880
C         43.91997        38.09438        -2.09016
C         45.22696        40.24105        -1.95168
C         43.95500        39.53994        -2.16998
C         45.24158        41.75427        -1.85640
C         44.10113        42.42696        -2.59168
C         45.32557        44.56499        -1.88690
C         44.09287        43.90606        -2.43576
C         45.30596        46.03578        -1.56836
C         43.96992        46.77602        -1.51614
C         45.29513        48.94303        -1.82263
C         44.04461        48.24139        -1.91457
C         45.28515        50.40073        -1.89360
C         44.09365        51.07934        -2.10633
C         45.37779        53.30215        -2.13470
C         44.07419        52.53420        -2.34139
C         45.34476        54.80437        -1.96693
C         44.03135        55.57594        -2.14099
C         43.94153        56.93937        -1.58736
C         48.06034        18.94799        -0.70234
C         46.95522        18.20457        -1.17139
C         47.94239        20.30449        -0.46331
C         46.67721        20.96529        -0.64790
C         47.70880        23.17436        -0.08527
C         46.57327        22.37275        -0.52266
C         47.61759        24.52551         0.07961
C         46.28217        25.20672         0.00669
C         47.57414        27.41068        -0.03722
C         46.37410        26.66576        -0.38268
C         47.57385        28.84138        -0.23554
C         46.47144        29.52440        -0.84890
C         47.51163        31.70119        -0.42413
C         46.44245        30.91260        -0.99382
C         47.46628        33.10894        -0.43080
C         46.50447        33.75463        -1.39364
C         47.47750        35.97814        -0.88443
C         46.40686        35.25781        -1.32262
C         47.44678        37.42684        -1.02458
C         46.37609        38.11264        -1.53479
C         47.54688        40.34017        -1.09090
C         46.35983        39.56411        -1.56219
C         47.70076        41.74845        -1.49410
C         46.59510        42.37974        -2.29718
C         47.79952        44.61452        -1.99708
C         46.61496        43.90109        -2.14215
C         47.78397        46.09477        -1.85785
C         46.57005        46.78772        -1.70707
C         47.71944        48.97466        -1.40651
C         46.50897        48.23627        -1.66177
C         47.72154        50.39006        -1.31868
C         46.51974        51.14200        -1.63895
C         47.74271        53.29787        -1.24563
C         46.53315        52.53307        -1.63788
C         47.53678        54.70221        -0.82062
C         46.44082        55.39769        -1.16315
C         50.32814        20.42706         0.44154
C         49.18181        21.14048        -0.22417
C         50.16293        23.28732         0.59392
C         48.89377        22.45544         0.52280
C         50.06613        24.63848         0.74036
C         48.69637        25.27598         0.82610
C         49.91265        27.51153         0.71875
C         48.70529        26.76216         0.50058
C         49.86079        28.93658         0.68542
C         48.66378        29.61545         0.25367
C         49.55027        31.79966         1.02976
C         48.58474        31.02856         0.23104
C         49.42594        33.31054         1.18921
C         48.23691        33.99856         0.49916
C         49.53108        36.14617         0.63476
C         48.71785        35.25161        -0.29328
C         49.30247        37.46332         0.54697
C         48.75488        38.08982        -0.69985
C         50.12084        40.31648        -0.68767
C         48.76316        39.61377        -0.60415
C         50.08505        41.81879        -0.81273
C         48.89888        42.44833        -1.30786
C         50.30449        44.30091        -1.93606
C         49.00498        43.80995        -1.78403
C         50.29483        46.41710        -1.94889
C         48.99586        46.89317        -1.71021
C         50.15457        48.93579        -0.93235
C         48.94613        48.25831        -1.28947
C         50.07099        50.32364        -0.60847
C         48.91470        51.05039        -0.90392
C         50.03106        53.12982         0.00899
C         48.97504        52.53281        -0.84377
C         51.39785        21.13839         0.85847
C         52.60336        23.31786         0.97220
C         51.42737        22.59047         0.79853
C         52.55897        24.76764         1.09381
C         51.21238        25.41070         1.34485
C         52.32729        27.63679         1.16428
C         51.15980        26.88245         1.01802
C         52.25734        29.04808         1.15284
C         51.01675        29.68737         1.01595
C         51.98422        31.92632         1.99284
C         50.82007        31.09170         1.44429
C         51.95592        33.36319         1.36661
C         50.63653        34.11159         1.60757
C         51.96365        36.38694         1.44692
C         50.58568        35.67676         1.66205
C         52.15973        37.80093         1.27662
C         51.07995        38.69926         1.07797
C         52.41999        40.52788         0.22325
C         51.16991        39.87199         0.31858
C         52.50496        41.81891        -0.29590
C         51.32231        42.50158        -0.73772
C         52.67759        44.61498        -1.12948
C         51.44693        43.84144        -1.24287
C         52.73584        46.10601        -1.38805
C         51.47932        46.94208        -1.39040
C         52.69667        49.07653        -0.86756
C         51.41961        48.26033        -0.92250
C         52.55761        50.30867         0.01030
C         51.20929        50.97147         0.08519
C         51.07443        52.39979         0.43553
C         55.04710        23.38870         1.14902
C         53.89824        22.67712         1.07983
C         55.03244        24.85911         1.06064
C         53.70240        25.51365         1.16820
C         54.87024        27.77485         1.12675
C         53.62489        26.96942         1.58963
C         54.76960        29.22271         1.53128
C         53.47902        29.87522         1.27601
C         54.55364        32.03924         2.11925
C         53.34034        31.31735         1.67230
C         54.38640        33.50442         2.33636
C         53.13793        34.18884         1.85234
C         54.34581        36.18169         0.89169
C         53.13099        35.61366         1.39685
C         54.68262        37.52842         0.89090
C         53.51922        38.40008         1.13488
C         54.86035        40.24027        -0.13044
C         53.64195        39.83469         0.68272
C         55.02373        41.75147        -0.09955
C         53.75510        42.59270        -0.00837
C         55.04722        44.65899        -0.36641
C         53.81680        43.96951        -0.63924
C         55.11417        46.03730        -0.38989
C         53.99805        46.84026        -0.91420
C         55.03959        48.94309        -0.03542
C         53.94580        48.27873        -0.52930
C         54.98174        50.38116         0.22301
C         53.81476        51.05480         0.24612
C         57.55237        25.04009         1.76808
C         56.28272        25.67631         1.35344
C         57.10640        27.81624         2.30390
C         56.12571        27.12032         1.65535
C         57.09951        29.28007         2.33630
C         55.85623        29.95068         1.95155
C         57.12507        32.05750         1.86604
C         55.77856        31.40594         2.09173
C         56.57442        33.89419         3.51813
C         55.64918        34.26093         2.52859
C         57.13794        36.06315         1.78322
C         56.06023        35.18401         1.57101
C         57.19649        37.33946         1.08899
C         56.03797        38.03625         0.67260
C         57.47024        40.18715         0.23380
C         56.14483        39.43735         0.14400
C         57.45321        41.66879         0.38259
C         56.22979        42.38056         0.03342
C         57.43987        44.55078         0.57887
C         56.27813        43.86117        -0.06792
C         57.15237        45.93987         1.10607
C         56.31928        46.73537         0.12237
C         57.28382        48.80959         1.24322
C         56.30579        48.22676         0.28859
C         58.45122        25.69495         2.51506
C         59.47968        27.89384         3.11395
C         58.20996        27.08458         3.04533
C         59.46070        29.23918         2.99475
C         58.24589        29.97155         2.68641
C         58.97126        32.18821         3.74651
C         58.39808        31.48012         2.50982
C         58.90703        33.50123         4.05541
C         57.90197        34.38997         3.43483
C         59.42536        36.23782         2.66303
C         58.15148        35.55454         2.66289
C         59.61052        37.34161         1.90224
C         58.55340        37.95016         1.06327
C         59.80082        40.23256         1.23936
C         58.69434        39.43759         0.68649
C         59.69953        41.57068         1.39509
C         58.52311        42.32297         0.99426
C         59.43627        44.44843         1.98212
C         58.49708        43.75716         1.24649
C         59.41148        45.88059         2.10567
C         58.37813        46.64444         1.62204
C         58.29125        48.07854         1.78512
O         40.75187        20.15222        -1.88934
O         29.71106        24.44657         0.92862
O         59.07971        38.38490        -0.23406
O         44.45744        43.26183        -3.73575
O         34.48816        47.47554        -0.57350
O         56.99487        47.57130        -0.84940
O         40.06011        32.42625        -3.15412
O         23.78137        30.44219        -0.72995
O         44.93620        52.89411        -3.46229
O         56.99610        39.63405        -1.03637
O         29.37589        29.15242        -1.63542
O         38.33086        48.69404         1.14792
O         34.50170        50.49565         2.69501
O         33.30725        22.10186        -2.06799
O         45.52293        35.33449        -3.48774
O         53.36203        33.97600         3.28819
O         36.52223        34.38937        -0.15015
O         44.82534        28.96522        -2.65756
O         32.65218        36.76659        -1.70038
O         35.58558        40.41558        -2.30579
O         53.72218        46.57839        -2.35261
O         53.49113        30.95706         0.25137
O         41.96802        29.04179        -0.14587
O         45.29989        45.02739        -0.48708
O         40.10910        55.07179         0.15917
O         49.67563        31.15187         2.35165
O         35.89658        24.91325         0.14782
O         44.75387        18.09366        -1.99885
O         50.46514        45.35675        -2.83520
O         25.04281        46.52148         2.54711
O         42.56825        54.04132        -3.55079
O         38.20386        36.30641         0.10261
O         36.43606        30.32361        -3.46490
O         32.39431        46.11408        -0.17122
O         55.90042        25.36086        -0.04486
O         34.95503        36.68898        -2.45845
O         55.29809        35.27818         0.40186
O         49.70401        33.60712         2.59718
O         48.87678        53.14699        -2.18471
O         57.41731        44.36170        -0.86144
O         45.02372        55.49697        -3.20844
O         30.07827        30.85450         1.42374
O         53.80359        39.54234         2.08561
O         57.25642        32.81716         0.91308
O         36.88667        46.08361         1.70239
O         48.52659        22.31241         1.88455
O         33.01857        39.38036         1.69662
O         49.81265        38.33148         1.50889
O         38.54772        20.73678         1.06679
O         47.83912        40.12704         0.37742
O         41.02969        24.46148        -3.07514
O         30.89337        36.22519         1.42247
O         42.05442        51.83226        -0.49939
O         41.12429        23.14070        -0.12721
O         25.75173        37.77526        -0.18300
O         51.72955        50.12955         1.19437
O         37.22461        22.82158         0.69665
O         38.01798        50.57267        -2.08521
O         33.12802        26.55408        -2.68431
O         25.32248        33.12206         2.58598
O         56.26974        45.76860         2.26274
H         56.79168        45.36714         2.98914
O         57.74312        26.91968         4.42807
H         57.56754        27.81522         4.78620
O         33.87363        43.79100        -1.00873
H         33.53140        44.69591        -1.19252
O         48.32820        25.07468         2.25846
H         48.34136        24.06351         2.35431
O         37.14336        23.62183        -2.39469
H         37.00757        24.30293        -3.09176
O         37.75595        26.95371        -3.71288
H         36.92567        27.38420        -4.02472
O         53.66609        42.91088         1.43874
H         53.46945        42.07690         1.92031
O         26.76451        40.08445        -0.54479
H         26.07056        39.50509        -0.93890
O         43.00771        20.23850         0.87300
H         43.89931        19.97448         1.18497
O         47.05116        33.45105        -2.68136
H         46.52763        34.02125        -3.33067
O         41.27668        39.48049        -4.17461
H         41.61847        40.33859        -4.54220
O         34.71435        30.88556         0.62089
H         34.01701        30.69712         1.28430
O         42.49560        41.80275        -4.26557
H         43.16625        42.43755        -4.63071
O         59.44129        31.65843         1.51637
H         59.09091        32.31823         0.86853
O         50.66510        39.89405        -1.99182
H         51.58018        40.24463        -2.06435
O         51.86301        31.96684         3.41150
H         50.92121        32.18446         3.61163
O         43.20347        46.45061        -3.76326
H         42.55992        46.00781        -4.35512
O         54.46648        39.91343        -1.49719
H         55.29987        39.89595        -2.02486
O         37.31202        54.82111        -2.23641
H         36.49774        54.28317        -2.33123
O         50.17290        36.05471         2.97491
H         49.49585        35.40182         3.26772
O         40.76487        55.78294        -3.29706
H         41.11917        55.11633        -3.93307
O         35.54168        42.39546         1.95290
H         35.68653        41.47079         2.24659
O         40.01144        37.14658        -3.92953
H         40.33568        37.97407        -4.36667
O         47.28211        34.45038         1.49049
H         46.44206        33.94440         1.37841
O         54.86900        27.78937        -0.31998
H         55.25562        26.92626        -0.61867
O         34.21445        31.38982        -2.95851
H         34.69161        30.91924        -3.68611
O         46.79610        42.00904        -3.68759
H         47.59760        42.46865        -4.01354
O         30.72391        26.15268        -2.57694
H         31.46559        25.91869        -3.18324
O         39.18283        33.82531         0.16563
H         38.77082        34.70430         0.44708
O         26.45082        29.03464         2.05037
H         27.19871        29.46616         2.51504
O         49.62966        21.57297        -1.54900
H         49.86745        20.77402        -2.06437
O         52.02081        33.23783        -0.06546
H         52.73967        32.61134        -0.31540
O         42.50755        50.54684        -3.81555
H         43.28239        50.23367        -4.32824
O         51.02775        25.36442         2.80856
H         50.04759        25.36443         2.96651
O         34.13755        44.51943         2.61553
H         34.67666        43.70568         2.77660
O         39.12971        26.67659        -0.35869
H         40.02881        26.48492        -0.01537
O         37.00095        29.86875        -0.01451
H         36.21654        30.15050         0.51975
O         45.75410        25.20455         1.38210
H         46.53702        25.26486         1.99039
O         35.27174        27.48345        -3.14098
H         34.32982        27.58161        -3.42548
O         26.47964        35.28240        -0.95964
H         26.14906        36.20720        -1.08680
O         43.52513        46.78668        -0.14784
H         43.93515        46.00903         0.29995
O         45.41465        31.61058        -3.08077
H         45.39075        30.66815        -3.37341
O         45.43805        37.73962        -3.67578
H         45.51728        36.83499        -4.12449
O         53.62368        26.97544         3.04271
H         52.83404        26.45943         3.33198
O         40.34371        27.16729        -3.80586
H         40.31835        26.23555        -4.11484
O         29.82478        22.53010        -2.22092
H         28.96680        22.97527        -2.42901
O         45.02470        42.08317        -0.46011
H         45.75930        41.70468         0.07056
O         31.76330        42.16595        -0.37096
H         32.41587        42.72068        -0.87435
O         25.41769        42.19936         0.40757
H         25.95024        41.69447        -0.25900
O         31.38802        21.98247         1.02640
H         32.08923        21.37636         1.34525
O         25.52697        28.72696        -1.47049
H         25.00951        29.50221        -1.79412
O         25.35545        37.60868         3.50568
H         24.75305        37.93047         4.20829
O         56.24425        33.00205         4.48627
H         55.27779        32.84041         4.46641
O         52.88135        49.55744        -2.23202
H         53.16322        48.78818        -2.77714
O         45.01924        33.02516         0.30756
H         44.12337        32.69096         0.53202
O         27.44462        24.09339        -1.88951
H         27.32832        24.99615        -2.25747
O         49.65497        37.62827        -1.75523
H         49.45931        38.13148        -2.57534
O         28.31577        35.67720         2.19421
H         29.26959        35.87417         2.37304
O         49.53658        34.77477        -1.36594
H         49.82453        35.56230        -1.88261
O         31.35196        41.23929         3.15122
H         32.04949        40.54910         3.20808
H         21.95292        26.75491         1.02705
H         21.91289        29.19400         0.84894
H         22.03769        31.18362         1.25042
H         22.21407        33.50549         1.88452
H         22.34738        35.49931         1.96086
H         22.50519        37.89742         2.36184
H         22.93885        39.56271         3.34255
H         23.00203        41.93606         3.78963
H         23.41388        43.59097         4.52332
H         23.55243        45.75401         5.45281
H         25.11892        23.28819         0.22281
H         23.09782        24.60400         0.78561
H         26.83301        49.37603         4.39380
H         25.19619        48.01388         5.56458
H         26.85563        22.37524         0.64394
H         27.76428        50.57877         3.02999
H         28.87292        21.04635         0.31624
H         29.76614        51.88583         2.51972
H         32.62033        18.66302        -0.78703
H         30.50119        19.86812        -0.98975
H         33.37516        54.13041         1.51318
H         31.40373        52.89979         2.12004
H         34.49032        17.73952        -0.45179
H         35.02722        55.10257         1.21370
H         36.70948        16.76534        -0.22667
H         36.76277        56.39520         0.11455
H         40.28142        14.83681         0.72309
H         38.23634        16.16940         1.08267
H         40.28264        58.67535        -1.10047
H         38.13040        57.41807        -1.12972
H         42.43871        14.58997        -0.33948
H         42.77729        58.58652        -0.88853
H         44.36366        15.61858        -1.58854
H         44.86961        57.52357        -1.53555
H         49.03005        18.44105        -0.60894
H         47.08055        17.16129        -1.48750
H         48.34109        55.20709        -0.26687
H         46.36716        56.45464        -0.87275
H         50.32327        19.33413         0.56553
H         49.97218        54.19847         0.25966
H         52.25487        20.60933         1.30032
H         51.84569        52.85179         1.07520
H         56.01574        22.87248         1.19745
H         53.95058        21.57972         1.09453
H         55.92308        50.91770         0.40349
H         53.78670        52.12792         0.48127
H         57.76770        24.02786         1.39606
H         57.23503        49.88649         1.45816
H         59.39567        25.20453         2.79663
H         60.41891        27.36870         3.34397
H         60.39183        29.81574         3.09078
H         59.71830        31.58158         4.28581
H         59.57222        33.89680         4.84269
H         60.25166        35.82740         3.26026
H         60.61029        37.79407         1.85330
H         60.74305        39.72648         1.48737
H         60.56016        42.12162         1.79640
H         60.26722        43.91939         2.46864
H         60.26833        46.37065         2.59113
H         59.05359        48.57531         2.40456
