         720
 CSIRO Nanostructure Databank - Neutral Graphene Oxide Data Set
C         24.78666        27.27108         4.76081
C         24.59387        28.61670         4.53568
C         24.09014        31.44632         3.80751
C         23.91765        32.82357         3.50189
C         23.65588        35.79800         3.11950
C         23.59029        37.13821         2.99769
C         24.03686        40.05269         3.57685
C         24.12914        41.38727         3.75661
C         23.84676        44.33885         3.59882
C         23.84296        45.70122         3.64145
C         26.89954        24.39199         3.57553
C         25.91658        25.11854         4.26550
C         26.48895        27.13289         2.99246
C         25.74156        26.50588         4.00363
C         26.26210        28.54602         2.71879
C         25.32503        29.31515         3.54271
C         26.30659        31.45899         2.72601
C         25.21473        30.73264         3.36503
C         26.32282        32.97245         2.96305
C         24.93833        33.58284         2.98258
C         25.84216        35.69725         1.79405
C         24.71682        34.97344         2.49704
C         25.73948        37.20353         1.60461
C         24.54066        37.92847         2.18112
C         25.85175        40.11819         1.91202
C         24.52675        39.46117         2.27495
C         25.87964        41.51531         2.02459
C         24.87322        42.22355         2.81778
C         25.57477        44.41679         1.77605
C         24.80400        43.60565         2.80616
C         25.86651        45.84019         2.23505
C         24.89134        46.48291         3.01412
C         26.04398        48.61620         2.72832
C         24.98278        47.87860         3.23839
C         28.70757        22.82218         1.58390
C         28.83438        24.20840         2.05613
C         27.66948        24.96352         2.58027
C         28.70440        27.14589         1.75265
C         27.41962        26.36478         2.08041
C         28.64721        28.59196         1.65528
C         27.38459        29.32613         1.97874
C         28.48880        31.54981         1.49114
C         27.37733        30.79462         2.17926
C         28.68028        32.99737         2.02904
C         27.34949        33.72653         2.13285
C         28.22532        35.76861         0.98903
C         27.17526        35.01857         1.73750
C         28.07691        37.24322         0.70059
C         26.94861        37.99467         1.27571
C         28.12285        40.17598         0.94682
C         26.96084        39.40817         1.34116
C         28.11413        41.57173         1.02478
C         26.95436        42.25382         1.46554
C         28.04104        44.49451         0.83257
C         26.80890        43.69453         1.23229
C         28.05751        45.93216         1.09657
C         26.99225        46.58322         1.74876
C         28.32251        48.71538         1.69018
C         27.08987        47.99942         2.01451
C         28.45991        50.13252         2.01936
C         30.92439        22.91933         0.51012
C         29.70962        22.22317         0.89235
C         31.02510        24.29804         0.74967
C         30.00359        25.00186         1.55204
C         31.04984        27.18140         0.95298
C         29.88491        26.48051         1.44271
C         31.02222        28.64247         0.92366
C         29.78462        29.30699         1.30104
C         31.02595        31.54398         1.07409
C         29.80399        30.78238         1.48730
C         31.01639        33.00736         0.99113
C         29.71247        33.67458         1.14725
C         30.79733        35.95427         0.66599
C         29.56583        35.10697         0.79030
C         30.63166        37.37588         0.27757
C         29.27590        38.01344         0.22344
C         30.62757        40.18669         0.26044
C         29.30166        39.50289         0.34818
C         30.68794        41.63102         0.60501
C         29.37544        42.35143         0.88167
C         30.49753        44.52538         0.36198
C         29.33422        43.80105         0.68038
C         30.46287        45.94826         0.31814
C         29.18233        46.71643         0.49569
C         30.80602        48.61298         1.16511
C         29.38644        48.07174         1.09972
C         30.85373        50.13366         1.38342
C         29.60338        50.80949         1.79679
C         32.98221        20.23154        -1.15230
C         31.93811        20.86724        -0.51105
C         33.20266        22.95923        -0.48125
C         32.00248        22.24413        -0.17060
C         33.25829        24.37707        -0.27769
C         32.14845        25.04616         0.29388
C         33.22464        27.23397        -0.30147
C         32.15290        26.47926         0.45805
C         33.45357        28.64420         0.23983
C         32.13299        29.35057         0.48588
C         33.29213        31.59195        -0.12161
C         32.09493        30.81680         0.34873
C         33.37647        33.06130         0.04750
C         32.21157        33.73689         0.65347
C         33.13028        35.93932        -0.33145
C         32.13444        35.27856         0.47020
C         33.10464        37.44046        -0.28752
C         31.70566        38.05826        -0.55771
C         33.02351        40.25181        -0.39091
C         31.72555        39.54490        -0.23247
C         33.04316        41.75538        -0.31560
C         31.80003        42.43924         0.07447
C         32.79746        44.54405        -0.66354
C         31.73276        43.81407         0.01564
C         32.50724        45.87220        -0.94159
C         31.57297        46.67862        -0.18876
C         32.94535        48.82444        -0.23840
C         31.74076        48.06836         0.07182
C         33.03785        50.19415         0.06857
C         31.99850        50.93154         0.80548
C         32.89417        53.11449         0.00992
C         31.93703        52.40483         0.63467
C         35.08329        19.05553        -2.81451
C         35.32327        20.23598        -2.09405
C         34.20383        20.90753        -1.41809
C         35.63302        22.90387        -1.12237
C         34.31594        22.24674        -1.02691
C         35.71729        24.37312        -0.86724
C         34.47751        25.12605        -0.55554
C         35.86845        27.20359        -0.39860
C         34.52720        26.48584        -0.43879
C         35.81156        28.70568        -0.70074
C         34.46790        29.41401        -0.64489
C         35.81541        31.66358        -0.49841
C         34.58585        30.86472        -0.21302
C         35.65491        33.09132        -0.88916
C         34.42684        33.75655        -0.52362
C         35.44419        35.91002        -1.44239
C         34.18664        35.16084        -1.06142
C         35.43662        37.36459        -1.46698
C         34.16906        38.08545        -1.14874
C         35.36407        40.35259        -1.35258
C         34.11974        39.57752        -1.16560
C         35.33907        41.72560        -1.28743
C         34.13850        42.50902        -0.97610
C         35.23925        44.68188        -1.59135
C         34.03251        43.88858        -1.11515
C         35.40053        46.14918        -1.34124
C         34.27843        47.00027        -1.37462
C         35.46712        48.82693        -0.23808
C         34.17933        48.22212        -0.72799
C         35.50275        50.31599        -0.52374
C         34.17967        50.98035        -0.46982
C         35.38922        53.26410        -0.90135
C         34.08707        52.47178        -0.60172
C         35.45601        54.67858        -0.34997
C         37.39719        18.97625        -3.50939
C         36.09765        18.45877        -3.55640
C         37.71558        20.13164        -2.75862
C         36.63049        20.81482        -2.12798
C         37.89667        22.93139        -2.12525
C         36.77180        22.21251        -1.77964
C         37.73751        24.40263        -2.44683
C         36.84729        25.14091        -1.45316
C         38.13620        27.22573        -1.55468
C         36.90037        26.47869        -1.24917
C         38.18590        28.71375        -1.37769
C         36.92313        29.41436        -1.03425
C         37.96207        31.63441        -1.81779
C         37.10131        30.91838        -0.81869
C         37.88770        33.02123        -1.96275
C         36.67550        33.76114        -1.56989
C         37.65500        35.89626        -2.57133
C         36.56143        35.18816        -1.83633
C         37.53758        37.43568        -2.77625
C         36.53947        38.09468        -1.83710
C         37.75089        40.32660        -2.13664
C         36.66443        39.55142        -1.40495
C         37.88416        41.76078        -1.73389
C         36.61300        42.47807        -1.38970
C         37.85040        44.64648        -1.60787
C         36.54757        43.93435        -1.69632
C         37.88223        45.98364        -1.28510
C         36.67073        46.76429        -1.06251
C         37.99003        48.87787        -0.40573
C         36.71074        48.11538        -0.70199
C         37.94745        50.35497        -0.78430
C         36.66245        51.02911        -0.61474
C         37.88193        53.26463        -0.72578
C         36.62284        52.51951        -0.33228
C         37.90413        54.63160        -0.59166
C         36.64631        55.29744        -0.22303
C         40.32435        15.77471        -2.46598
C         39.32795        16.35777        -3.24544
C         40.40211        18.56362        -3.00847
C         39.36376        17.73806        -3.47865
C         40.35044        20.07066        -3.24755
C         39.08814        20.68479        -2.61411
C         40.37092        22.95152        -2.76499
C         39.15457        22.22624        -2.37716
C         40.32330        24.39791        -3.21082
C         39.04081        25.14942        -2.79438
C         40.45099        27.31896        -2.53153
C         39.16462        26.59178        -2.42393
C         40.38234        28.75357        -2.51846
C         39.25437        29.43853        -2.09064
C         40.39838        31.63417        -2.36191
C         39.08718        30.88784        -2.48484
C         40.33066        33.09442        -2.36124
C         39.05461        33.73749        -2.39409
C         40.25000        35.91046        -3.02512
C         38.96117        35.15765        -2.78723
C         40.22345        37.41905        -3.06538
C         38.91295        38.14196        -2.92854
C         40.25846        40.35139        -2.82362
C         38.92277        39.64062        -2.75708
C         40.28095        41.85751        -2.68015
C         39.04310        42.54973        -2.21340
C         40.31711        44.63381        -2.19086
C         39.05333        43.89835        -1.95859
C         40.33995        46.09894        -1.95327
C         39.17057        46.69560        -1.24337
C         40.34307        48.90011        -1.56475
C         39.22014        48.14792        -0.92144
C         40.32821        50.38487        -1.56640
C         39.06904        51.05870        -1.13967
C         40.30390        53.29366        -1.58830
C         39.02038        52.53184        -1.30028
C         40.35220        54.70014        -1.11990
C         39.16287        55.36910        -0.72409
C         40.49047        57.36047        -0.22909
C         39.26025        56.72532        -0.33105
C         42.42975        16.00236        -1.15698
C         41.40266        16.55744        -2.01610
C         42.79457        18.61560        -2.19195
C         41.46037        17.93565        -2.34256
C         42.72622        20.11653        -2.35115
C         41.60156        20.78902        -2.70976
C         42.79845        23.00847        -2.62139
C         41.58938        22.26677        -2.76415
C         42.81073        24.44146        -2.67553
C         41.60130        25.17023        -2.86078
C         42.88394        27.32451        -3.10434
C         41.61237        26.59687        -2.84187
C         42.89545        28.84064        -3.10526
C         41.57482        29.54116        -2.92487
C         42.85006        31.75981        -2.86115
C         41.57131        30.98407        -2.59498
C         42.79869        33.06564        -2.06154
C         41.52381        33.80739        -2.37146
C         42.76078        36.01359        -2.37925
C         41.55587        35.22727        -2.74546
C         42.70659        37.39437        -2.31033
C         41.58731        38.16155        -2.99255
C         42.65176        40.32533        -1.93088
C         41.46246        39.58418        -2.50237
C         42.84673        41.72018        -2.58115
C         41.57572        42.53977        -2.39053
C         42.81048        44.56561        -1.54865
C         41.58840        43.87056        -2.14285
C         42.83470        46.07424        -1.74105
C         41.63331        46.79688        -1.76262
C         42.84059        48.91921        -1.60232
C         41.63677        48.19226        -1.63258
C         42.82960        50.37366        -1.54697
C         41.63127        51.08537        -1.54887
C         42.85779        53.28008        -1.41883
C         41.62402        52.55934        -1.89380
C         42.84869        54.63393        -1.29017
C         41.60193        55.35939        -1.05030
C         42.98438        57.26465        -0.24174
C         41.68253        56.68210        -0.54887
C         43.37953        16.79209        -0.57666
C         44.35366        19.04989        -0.22504
C         43.51307        18.18856        -0.91466
C         44.51141        20.46107        -0.66941
C         44.07925        20.76334        -2.10262
C         45.15148        23.07720        -1.75290
C         44.10739        22.28701        -2.51313
C         45.20205        24.45607        -2.02126
C         44.06263        25.12956        -2.51836
C         45.44173        27.31563        -2.64076
C         44.17083        26.54843        -2.91322
C         45.41300        28.86727        -2.62247
C         44.13862        29.59983        -2.77400
C         45.30740        31.72629        -2.25804
C         44.11741        30.97612        -2.56532
C         45.30393        33.16577        -2.18402
C         44.04398        33.89510        -2.22051
C         45.26817        36.09682        -2.15118
C         43.99750        35.26891        -2.20311
C         44.96728        37.30093        -1.24708
C         43.87249        38.14566        -1.86967
C         45.26746        40.22041        -1.79874
C         43.92260        39.50880        -1.85075
C         45.14804        41.71645        -1.59409
C         44.07548        42.41545        -2.02982
C         45.33003        44.59547        -1.59612
C         44.10192        43.92232        -2.16123
C         45.23203        46.02453        -1.11084
C         44.03589        46.78069        -1.59614
C         45.31699        48.89792        -1.52853
C         44.05801        48.19339        -1.58470
C         45.30781        50.33513        -1.64725
C         44.11881        51.04691        -1.56581
C         45.29122        53.23917        -1.92392
C         44.15581        52.52237        -1.23483
C         45.36676        54.70927        -1.73960
C         44.07685        55.48964        -1.54376
C         44.13656        56.66978        -0.61172
C         46.12260        19.40436         1.46664
C         45.10208        18.65658         0.94076
C         46.56494        20.64256         0.87947
C         45.66640        21.24661        -0.12881
C         47.20315        23.15436        -0.39230
C         46.08904        22.47527        -0.84787
C         47.50828        24.48730        -0.92946
C         46.44363        25.19362        -1.74113
C         47.57118        27.39369        -1.33932
C         46.48115        26.66748        -1.84197
C         47.64597        28.83006        -1.52278
C         46.54195        29.55896        -1.99662
C         47.71851        31.68813        -1.71885
C         46.53717        31.01042        -1.97804
C         47.82202        33.16354        -2.01284
C         46.50087        33.88883        -2.00696
C         47.63463        35.98365        -1.31344
C         46.50328        35.30491        -1.76021
C         47.56498        37.32099        -0.71134
C         46.21673        38.06859        -0.77873
C         47.44459        40.19537        -0.48301
C         46.32218        39.54628        -0.91859
C         47.48592        41.68588        -0.48250
C         46.31617        42.43357        -1.02370
C         47.77062        44.58858        -1.10827
C         46.43689        43.89324        -1.26532
C         47.67924        46.07262        -0.79893
C         46.53245        46.78429        -1.11214
C         47.72879        48.98432        -0.97079
C         46.51535        48.21887        -1.24896
C         47.81132        50.32954        -1.24555
C         46.65400        50.93675        -2.06223
C         47.73930        53.28924        -2.45010
C         46.54719        52.46053        -2.23364
C         47.73156        54.64872        -2.38212
C         46.53093        55.35975        -2.02631
C         48.71295        20.71105         2.14229
C         47.77225        21.25327         1.19899
C         49.20534        23.32691         1.18916
C         48.27106        22.43789         0.39857
C         49.21120        24.78912         0.98274
C         48.36476        25.37539        -0.09123
C         49.71088        27.46761        -0.07878
C         48.58802        26.76739        -0.54463
C         49.87580        28.85216        -0.45406
C         48.83555        29.50806        -1.11004
C         49.96067        31.65219        -0.57873
C         49.02436        30.93343        -1.55697
C         50.10416        33.10644        -0.98562
C         48.80679        33.87891        -1.05325
C         50.14819        36.02085        -0.73978
C         49.00082        35.35002        -1.47849
C         50.04758        37.44136        -0.38203
C         48.77533        38.07369        -0.36249
C         49.83219        40.23138         0.53184
C         48.53248        39.42750         0.29247
C         49.90463        41.71568         0.33582
C         48.74153        42.45261        -0.23055
C         49.87701        44.57114         0.41541
C         48.78765        43.80886        -0.30915
C         49.96232        46.05387         0.09206
C         48.85881        46.76318        -0.32994
C         49.85813        49.00290         0.52657
C         48.75004        48.24764        -0.16181
C         50.03707        50.46025         0.16819
C         49.01691        51.10693        -0.80781
C         50.80541        52.76747        -1.37903
C         49.58595        52.19239        -1.62735
C         49.85986        21.37242         2.48604
C         51.29489        23.47363         2.46700
C         50.10665        22.73868         2.06060
C         51.50908        24.80347         2.03603
C         50.32433        25.63540         1.59959
C         51.94610        27.45447         0.95238
C         50.70121        26.83581         0.75116
C         52.18310        28.76607         0.43290
C         51.12743        29.52677        -0.13609
C         52.47827        31.63722        -0.16461
C         51.26103        30.91591        -0.37693
C         52.52492        33.03606        -0.22359
C         51.36932        33.83470        -0.69935
C         52.50975        35.96850        -0.01126
C         51.31396        35.31109        -0.48831
C         52.55230        37.47976        -0.10990
C         51.19802        38.11845         0.04722
C         52.38661        40.22693         0.77036
C         51.10287        39.41396         0.80248
C         52.40547        41.63023         0.71453
C         51.25074        42.38209         0.07932
C         52.38045        44.55529         0.65076
C         51.22411        43.87003         0.38510
C         52.41056        46.00229         0.82953
C         51.11144        46.73414         0.74634
C         52.34170        48.93127         1.44707
C         51.05237        48.20643         1.03200
C         52.45153        50.37139         0.97548
C         51.39866        51.03920         0.25031
C         51.68824        52.21640        -0.41990
C         53.55682        23.38418         3.39293
C         52.34383        22.81345         3.20657
C         53.93942        24.67513         2.72903
C         52.74696        25.44726         2.21328
C         54.14637        27.45985         2.14348
C         52.96749        26.78375         1.75819
C         54.52512        28.73489         1.52175
C         53.50524        29.38252         0.55167
C         54.93093        31.54869         0.68643
C         53.68742        30.83144         0.18200
C         54.97622        33.04239         0.53911
C         53.75678        33.79787         0.02631
C         54.88133        35.93896         0.69501
C         53.66968        35.26103         0.27645
C         54.81311        37.37331         0.92413
C         53.65248        38.09667         0.72901
C         54.72586        40.22789         1.50253
C         53.59010        39.51722         1.02937
C         54.70500        41.63627         1.54870
C         53.57845        42.33209         1.05879
C         54.87483        44.54287         1.21410
C         53.64880        43.79833         0.81560
C         54.83256        46.02709         1.31522
C         53.58099        46.69861         1.09950
C         54.83590        48.88876         1.54577
C         53.61096        48.20696         0.94328
C         54.77065        50.25343         1.72812
C         53.63484        51.00027         1.29623
C         55.68395        25.03090         4.55884
C         54.86718        25.55353         3.54488
C         56.04000        27.71184         3.72451
C         55.01262        26.90267         3.14817
C         56.28166        29.05303         3.26774
C         55.54178        29.59987         2.16872
C         56.73834        31.73832         2.42625
C         55.75577        30.93020         1.76192
C         56.91357        33.14085         2.10125
C         55.99164        33.80171         1.27149
C         57.37797        35.85771         1.24409
C         56.01787        35.21875         1.10102
C         57.31913        37.38112         1.39799
C         55.97497        38.01314         1.58342
C         57.21230        40.19497         2.16391
C         55.93234        39.48048         1.91856
C         57.13733        41.64149         2.45676
C         55.84731        42.36402         2.17616
C         57.26546        44.46205         1.88329
C         55.87748        43.89288         2.15183
C         57.29581        45.96133         1.68374
C         56.01486        46.70751         1.59550
C         57.26813        48.76781         2.07016
C         56.05256        48.13972         1.75292
C         56.63252        25.82915         5.18572
C         57.85192        27.96543         5.37536
C         56.83880        27.16134         4.76709
C         58.07094        29.24630         4.95197
C         57.30658        29.82445         3.88527
C         58.59050        31.95096         4.04266
C         57.54592        31.16384         3.44505
C         58.82366        33.24129         3.67412
C         57.99999        33.89575         2.69683
C         59.44008        35.93109         2.67493
C         58.24515        35.21712         2.30803
C         59.62930        37.25431         2.41116
C         58.52379        38.09793         1.90871
C         59.57814        40.24177         2.75918
C         58.40429        39.52537         2.33006
C         59.57934        41.60517         2.89418
C         58.41437        42.38802         2.61282
C         59.66713        44.54120         2.52787
C         58.46942        43.77171         2.40417
C         59.68588        45.91440         2.39443
C         58.51800        46.67248         2.09737
C         58.46440        48.05563         2.25672
O         45.06062        20.13851        -2.91124
O         30.91292        37.02485         1.67830
O         58.20913        38.03330         0.43725
O         24.81167        35.00460         1.02408
O         41.04786        35.40329        -4.13548
O         40.01806        49.59398        -2.81153
O         30.30960        41.95742         1.98034
O         56.12356        41.89412         3.54240
O         50.67559        47.25951         2.08883
O         31.97620        50.51813         2.25054
O         48.92913        52.61565        -2.78111
O         29.35195        34.08469        -0.23965
O         37.96007        35.28987        -3.86610
O         38.34035        18.28572        -4.26739
O         54.88016        33.46278        -0.85592
O         24.57200        37.54002         0.76795
O         40.15734        45.60255        -3.31119
O         42.78668        44.32941        -0.17526
O         27.03062        44.04572        -0.18898
O         49.00999        51.37384         0.64093
O         57.47390        45.01554         0.55633
O         42.13061        29.33075        -4.27758
O         46.42432        42.18332         0.44056
O         30.81505        31.11092         2.48852
O         28.99709        38.81450        -0.95516
O         49.67378        41.16912         1.66721
O         44.25896        21.45118         0.35764
O         39.38943        21.21006        -1.31314
O         26.21011        28.85051         1.26072
O         54.60849        28.57615         0.06576
O         33.14478        46.48733        -2.01383
O         50.99079        33.39434        -2.09087
O         43.61419        26.78284        -4.24385
O         38.71994        27.80032        -0.32699
O         33.66372        38.80685        -2.32157
O         35.42952        31.28920         0.88856
O         33.75435        51.62570        -1.76034
O         35.76551        44.23478        -2.89654
O         46.63541        37.47964         0.45891
O         39.48107        37.84189        -4.25484
O         55.69361        38.43954         2.95389
O         27.68045        36.23463        -0.29504
O         47.86741        25.35839         1.31675
O         54.74597        44.06629        -0.15771
O         37.85392        40.21669        -3.57817
O         37.56164        42.09298        -0.32818
O         40.30046        41.25877        -4.03452
O         38.69225        26.19729        -3.77717
O         39.34224        53.03015        -2.65929
O         29.99660        24.47652         2.94240
O         32.62659        34.68889         1.73576
O         39.65136        47.16803         0.07915
O         47.65600        24.59274        -2.36588
O         33.53416        40.90038         0.80846
O         45.53142        52.76679        -3.28360
O         54.88538        30.95018        -0.63982
O         48.65450        48.67581         1.25552
O         36.09851        23.43798         0.19514
O         32.23468        31.23369        -1.06662
O         45.87442        28.08828        -3.79161
O         40.27283        20.33474        -4.65987
H         41.06909        19.96071        -5.09127
O         44.08882        44.21809        -3.57691
H         43.65469        43.46657        -4.04837
O         44.32122        36.76717        -0.05724
H         45.01446        36.70313         0.64433
O         35.42982        48.73171         1.22946
H         36.35745        48.90139         1.53872
O         51.43872        42.25636        -1.36361
H         52.27583        42.70718        -1.60538
O         44.49888        22.26716        -3.90905
H         44.97367        21.37944        -4.00552
O         49.46200        44.53305         1.82429
H         49.67788        45.39828         2.23982
O         45.54703        36.62423        -3.46819
H         45.72710        35.87798        -4.07692
O         49.79506        26.20097         2.83924
H         48.82326        26.30218         2.69956
O         52.93729        37.75122        -1.51250
H         53.68649        37.15893        -1.73961
O         48.21251        33.95154         0.25423
H         48.20399        33.03968         0.63790
O         52.37989        48.97432         2.88471
H         51.79408        48.25303         3.21443
O         33.53671        34.87470        -2.37211
H         33.42342        35.72925        -2.84513
O         54.73468        24.29178         1.54647
H         54.15349        23.76632         0.95644
O         38.11496        48.92481         1.06193
H         38.60356        48.10063         1.31250
O         42.03861        38.31061        -4.37280
H         41.22688        38.39561        -4.92784
O         26.79578        33.11500         4.36661
H         26.18043        32.59494         4.92888
O         41.76638        52.57958        -3.34939
H         40.86298        52.42874        -3.71680
O         49.35586        35.47800        -2.86983
H         50.04098        34.79129        -3.06160
O         35.51006        53.38156        -2.32492
H         35.00644        52.63561        -2.72791
O         48.34611        44.56033        -2.47339
H         47.69856        44.97934        -3.08077
O         53.65048        48.43241        -0.49893
H         54.45770        47.99988        -0.84998
O         49.14575        21.86751        -0.65434
H         48.59342        21.28862        -1.22345
O         44.47557        52.59538         0.19303
H         43.83109        52.04383         0.68394
O         23.56883        39.90005         1.26802
H         23.72562        39.33982         0.47328
O         34.08231        28.55524         1.53514
H         33.58763        27.91546         2.08868
O         43.04835        41.56965        -4.00955
H         42.16675        41.33459        -4.40161
O         37.92725        30.96609         0.39296
H         37.30122        30.86789         1.15046
O         49.28247        31.60032         0.72061
H         49.93986        31.77707         1.42583
O         44.93780        45.84879         0.32100
H         44.11841        45.26368         0.37547
O         36.92704        24.38147        -3.66382
H         37.15519        25.19746        -4.17024
O         42.86551        32.07764        -4.26785
H         42.76468        31.22719        -4.75740
O         31.33655        48.01085         2.38916
H         31.99308        48.65329         2.75185
O         51.00005        38.98001         2.19902
H         50.60395        39.73298         2.69575
O         49.69708        30.89631        -2.83905
H         49.15171        30.37188        -3.46123
O         40.31210        24.33399        -4.66477
H         40.04983        25.22765        -4.98420
O         36.88207        37.60158        -4.05102
H         37.50905        37.28092        -4.73919
O         42.74864        32.65670        -0.66126
H         42.83684        33.45792        -0.10332
O         38.75980        30.88962        -3.91448
H         39.54062        30.55951        -4.40912
O         47.99421        39.19019         1.61693
H         48.02725        40.05616         2.08504
O         24.64873        44.57565         0.66017
H         25.19911        44.64434        -0.15469
O         48.35717        33.25016        -3.36467
H         47.78189        32.71585        -3.95059
O         37.12665        39.44278        -0.02203
H         37.20501        40.36353         0.33505
O         34.03831        29.52589        -2.01656
H         33.45602        28.76226        -2.24706
O         33.47981        37.78264         1.07361
H         32.80001        37.41563         1.69009
O         42.30099        40.63101        -0.53904
H         42.42284        39.82151         0.00063
O         43.79017        56.05718        -2.86898
H         43.69287        55.30754        -3.49541
O         29.26997        32.97519         3.33847
H         28.54816        32.91082         4.01006
O         28.71799        46.97578        -0.90085
H         28.38008        46.12621        -1.26073
O         46.86282        50.42513        -3.41175
H         46.23411        50.90689        -3.99554
O         28.12271        31.62671         0.09510
H         27.37635        32.25350        -0.01421
O         45.79889        40.07540        -3.15821
H         45.09478        40.35869        -3.78487
O         36.33767        27.10539         0.97591
H         37.27771        27.40835         0.97338
O         31.35568        37.80693        -1.92579
H         30.46754        38.20649        -2.08672
O         43.57712        18.07973        -3.29416
H         44.37928        18.68400        -3.35787
O         32.64795        27.33944        -1.65347
H         32.51867        26.42864        -1.99431
O         26.73150        26.21882         0.78790
H         26.40160        27.12053         0.54563
O         58.04533        35.55655        -0.01422
H         58.50343        36.38743        -0.29365
O         36.48081        52.60465         1.11809
H         37.21200        52.09743         1.52900
O         55.48975        44.35925         3.46869
H         55.70912        43.63379         4.10264
H         24.21042        26.75821         5.54317
H         23.87398        29.16599         5.15837
H         23.24330        30.90355         4.24775
H         22.91718        33.25782         3.63997
H         22.92000        35.28877         3.75914
H         22.78576        37.67913         3.51722
H         23.50831        39.42973         4.31293
H         23.68883        41.85242         4.65077
H         23.09485        43.78037         4.17401
H         23.08695        46.23259         4.23761
H         27.09259        23.34808         3.86351
H         25.31653        24.63625         5.04844
H         26.07140        49.69451         2.93230
H         24.20489        48.37920         3.83228
H         27.76489        22.28733         1.76998
H         27.58507        50.68446         2.38714
H         29.57432        21.18105         0.57257
H         29.65320        51.88353         2.02330
H         32.87466        19.16828        -1.40472
H         31.03627        20.28578        -0.27891
H         32.79258        54.20770        -0.05479
H         31.08914        52.93683         1.08940
H         34.07779        18.61650        -2.84349
H         34.52933        55.23637        -0.15062
H         35.89980        17.56181        -4.15643
H         36.67190        56.34412         0.11164
H         40.28673        14.70292        -2.22548
H         38.50179        15.75939        -3.65032
H         40.54000        58.39718         0.13392
H         38.35611        57.28239        -0.05267
H         42.36893        14.93462        -0.89952
H         42.99910        58.18262         0.36573
H         44.06326        16.34892         0.16164
H         45.11061        57.09559        -0.32967
H         46.66679        19.00709         2.33477
H         44.87101        17.69196         1.41491
H         48.65180        55.21147        -2.58432
H         46.57357        56.45687        -1.97281
H         48.50550        19.73731         2.60813
H         51.14688        53.59149        -2.01804
H         50.54715        20.89675         3.19738
H         52.68135        52.67282        -0.32307
H         54.33349        22.82012         3.92807
H         52.15154        21.82248         3.63942
H         55.64015        50.81290         2.10060
H         53.75519        52.08584         1.17620
H         55.58291        23.98356         4.87203
H         57.29946        49.85835         2.19342
H         57.25428        25.41684         5.99292
H         58.45521        27.53679         6.18817
H         58.85587        29.83218         5.44554
H         59.23667        31.50558         4.80878
H         59.63896        33.79625         4.15634
H         60.25794        35.37901         3.16109
H         60.58209        37.72528         2.68991
H         60.50849        39.68789         2.93911
H         60.51674        42.10994         3.16368
H         60.59962        44.03446         2.81124
H         60.62171        46.45848         2.59047
H         59.37266        48.60052         2.55237
