         324
 CSIRO Nanostructure Databank - Neutral Graphene Oxide Data Set
C          1.36600         1.93529        -0.94567
C          1.25048         3.30443        -0.88130
C          2.51048         1.23463        -0.48879
C          2.22395         4.10770        -0.13607
C          1.27237         6.31477        -0.85621
C          1.33128         7.69538        -0.95689
C          2.32317         5.58185        -0.27721
C          2.43118         8.42846        -0.45141
C          1.53324        10.53571        -1.47426
C          1.65218        11.85239        -1.83542
C          2.53079         9.87679        -0.69061
C          2.80329        12.61823        -1.48477
C          1.87790        14.68294        -2.57686
C          2.05662        15.90773        -3.11523
C          2.95947        13.96150        -1.92299
C          3.43009        16.51191        -3.22093
C          3.42043        18.01428        -3.28948
C          3.63932         1.91227        -0.00264
C          3.50209         3.35511         0.29923
C          4.86588         1.25046         0.22818
C          4.70905         4.16384         0.48658
C          3.45219         6.28333         0.22885
C          3.47830         7.71125         0.17502
C          4.64389         5.53601         0.61227
C          4.54009         8.49183         0.86919
C          3.63706        10.62609        -0.26096
C          3.81945        11.99216        -0.68387
C          4.60053         9.99004         0.66805
C          4.97340        12.74435        -0.33209
C          4.17022        14.65899        -1.65581
C          4.36477        15.97822        -2.15893
C          5.17686        14.05667        -0.82624
C          5.48775        16.72119        -1.78206
C          4.46413        18.73803        -2.84506
C          5.59878        18.11249        -2.17859
C          6.06009         1.94807         0.56069
C          5.99905         3.43607         0.45386
C          7.27670         1.30429         0.76357
C          7.23719         4.22104         0.65648
C          5.84310         6.28822         1.07771
C          5.79826         7.78037         1.29375
C          7.16545         5.67380         0.91759
C          7.08315         8.52655         1.24436
C          5.83656        10.76519         1.07046
C          5.98531        12.18085         0.58648
C          7.04973         9.99535         1.63420
C          7.27487        12.89281         0.72656
C          6.37119        14.79848        -0.52146
C          6.52091        16.12337        -0.98176
C          7.43808        14.17904         0.24442
C          7.72347        16.87295        -0.70662
C          6.72918        18.83015        -1.86977
C          7.83601        18.22467        -1.18136
C          8.51016         2.01044         1.17636
C          8.44800         3.53163         1.17622
C          9.85602         1.42511         1.10114
C          9.69014         4.30417         1.10967
C          8.32654         6.40750         0.96140
C          8.27259         7.86050         1.08255
C          9.61685         5.71289         0.93663
C          9.51820         8.62913         0.81202
C          8.35433        10.72962         1.39475
C          8.34380        12.21383         1.48336
C          9.55578        10.06842         1.18581
C          9.64505        12.94938         1.67587
C          8.68159        14.91519         0.47384
C          8.80239        16.28413        -0.00657
C          9.74863        14.32070         1.12248
C         10.01244        17.01919         0.19034
C          9.01848        18.94050        -0.98261
C         10.13003        18.35291        -0.32867
C         11.03822         2.16840         1.25332
C         10.91141         3.63707         1.34539
C         12.29088         1.48056         1.05217
C         12.02530         4.48400         1.47447
C         10.81224         6.43814         0.77398
C         10.80249         7.89620         0.54234
C         12.04244         5.79287         0.98288
C         12.10201         8.61495         0.64776
C         10.81008        10.73818         1.23661
C         10.89856        12.11042         1.74852
C         12.02853        10.10104         0.72528
C         12.24509        12.83880         1.79178
C         10.97549        15.08888         1.43464
C         11.13235        16.45055         0.87557
C         12.21873        14.33650         1.88180
C         12.35071        17.13892         0.94939
C         11.35732        19.04678        -0.21891
C         12.48857        18.44752         0.36119
C         13.60101         2.00127         0.76673
C         13.88595         3.40936         1.01877
C         14.58330         1.29904         0.07934
C         14.66230         4.19754         0.23478
C         13.29493         6.45146         0.51716
C         13.28601         7.93935         0.62952
C         14.56037         5.69667         0.19279
C         14.59569         8.63493         0.63401
C         13.33737        10.87532         0.69904
C         13.46164        12.21477         1.26504
C         14.59986        10.11700         0.41053
C         14.72271        12.88872         1.29621
C         13.54644        15.03617         1.87638
C         13.56880        16.52943         1.51712
C         14.78138        14.27869         1.63066
C         14.88438        17.12737         1.23239
C         13.74975        19.12035         0.36051
C         14.94622        18.50402         0.77151
C         15.74019         1.98439        -0.63230
C         15.73633         3.52126        -0.53071
C         17.08711         1.39316        -0.29033
C         17.03462         4.28949        -0.50204
C         15.85841         6.42363         0.13145
C         15.88485         7.89464         0.38105
C         17.00210         5.73105        -0.11105
C         17.08627         8.68622         0.01486
C         15.90671        10.83171         0.47321
C         15.94565        12.22054         0.97541
C         17.16471        10.05494         0.33647
C         17.19630        12.84986         1.18444
C         16.01580        14.96635         1.63559
C         16.03120        16.41399         1.53240
C         17.23173        14.21997         1.54861
C         17.30672        17.15138         1.65937
C         16.20235        19.15559         0.69203
C         17.39983        18.52697         1.11638
C         18.29501         2.11350        -0.27594
C         18.31609         3.55363        -0.38803
C         19.54438         1.42555        -0.13983
C         19.52612         4.24601        -0.24014
C         18.27185         6.45190        -0.36986
C         18.27796         7.94380        -0.41396
C         19.54559         5.73890         0.08793
C         19.57853         8.67766        -0.48491
C         18.36922        10.79769         0.32768
C         18.43844        12.14526         0.82794
C         19.60356        10.14692        -0.14843
C         19.67682        12.78610         0.91557
C         18.52512        14.87247         1.83895
C         18.58610        16.37305         1.86907
C         19.80800        14.10735         1.54344
C         19.85576        17.04663         1.59209
C         18.64952        19.14576         1.07158
C         19.87879        18.45186         1.38545
C         20.76764         2.11186        -0.08596
C         20.73965         3.53759        -0.08984
C         22.04292         1.41394        -0.04410
C         21.99366         4.28195         0.15451
C         20.78612         6.45337        -0.46600
C         20.84175         7.93053        -0.41165
C         22.06704         5.69735        -0.32861
C         22.04604         8.60196        -0.32381
C         20.90970        10.75847         0.08313
C         20.91171        12.25416         0.21344
C         22.08191        10.04880        -0.12301
C         22.20226        12.72725         0.87900
C         21.08046        14.86185         1.38249
C         21.11368        16.27714         1.89886
C         22.23539        14.22967         0.99035
C         22.36885        17.01152         1.52842
C         21.09358        19.15469         1.49901
C         22.38727        18.48490         1.86734
C         23.25798         2.05827         0.05265
C         23.28298         3.52155         0.28587
C         24.52535         1.36065        -0.06798
C         24.57821         4.26534         0.12565
C         23.33257         6.44392        -0.27779
C         23.30606         7.87022        -0.37065
C         24.55554         5.72738        -0.16286
C         24.50294         8.58923        -0.52279
C         23.35108        10.75025        -0.12973
C         23.41211        12.12424         0.19804
C         24.55291        10.02912        -0.46952
C         24.58207        12.88358         0.01070
C         23.48968        14.93289         0.85067
C         23.50055        16.35239         1.13632
C         24.64962        14.26805         0.38398
C         24.81456        17.09633         1.20135
C         23.50398        19.21073         1.17641
C         24.66871        18.55836         0.82503
C         25.74416         1.97160        -0.25084
C         25.82036         3.47965        -0.22534
C         26.98975         1.19015        -0.16040
C         26.95374         4.28005        -0.75244
C         25.76973         6.40154        -0.33478
C         25.73551         7.82190        -0.71865
C         27.00983         5.69184        -0.52799
C         27.01696         8.54433        -0.95841
C         25.73821        10.74154        -0.69640
C         25.73546        12.21473        -0.63344
C         26.99567        10.04527        -1.02608
C         27.04991        12.97187        -0.71772
C         25.89728        15.01706         0.22124
C         25.94754        16.39936         0.49388
C         27.08136        14.38110        -0.25647
C         27.10741        17.14756         0.19313
C         25.81751        19.25750         0.38678
C         27.05929        18.60078         0.19881
C         28.11613         1.52911        -0.86137
C         28.06651         3.69579        -1.33512
C         29.51928         1.19004        -0.71226
C         29.35367         4.28481        -1.29347
C         28.22514         6.38201        -0.73712
C         28.26632         7.85426        -0.43502
C         29.42436         5.69148        -1.04342
C         29.55468         8.53197        -0.81706
C         28.31020        10.76918        -0.92235
C         28.34055        12.23706        -0.72396
C         29.55968         9.99881        -0.62014
C         29.53246        12.91879        -0.78118
C         28.27969        15.08687        -0.41045
C         28.30009        16.49071        -0.21560
C         29.46993        14.41096        -1.06619
C         29.50240        17.24946        -0.45817
C         28.22467        19.32478        -0.08868
C         29.45524        18.67380        -0.36927
C         30.54434         2.03592        -1.05608
C         30.53656         3.47431        -1.32031
C         31.76036         4.16511        -1.33594
C         30.69266         6.36512        -1.11855
C         30.72745         7.83260        -1.01194
C         31.83099         5.57005        -1.29787
C         31.95692         8.58950        -1.20933
C         30.86699        10.75304        -0.67755
C         30.81775        12.23898        -0.84254
C         32.02962         9.94042        -1.08136
C         31.96733        12.99225        -0.90047
C         30.77403        15.13891        -0.84349
C         30.73555        16.59621        -0.75015
C         31.94293        14.42393        -0.84469
C         31.88712        17.37699        -0.94065
C         30.64193        19.42481        -0.58665
C         31.83512        18.77778        -0.86293
O         27.72709        10.47169        -2.23951
O         12.45979        10.82198        -0.50087
O         19.26475        14.21149         2.92767
O         30.24793        10.37752         0.61576
O          2.43242         3.65473         1.24192
O          6.84348         3.86605        -0.71549
O         13.57249        16.05336         2.90588
O         11.32364        14.89889         2.85945
O          3.97228         9.40214         1.86175
O         26.20743        12.83124        -1.91098
O         22.56103         4.00226         1.46990
O         25.54919         3.92886         1.16549
O         26.37478         7.95477        -2.10512
O         15.43387         8.23394         1.77003
O         27.91506         2.44021        -1.91912
O         13.18145         3.99933         2.07294
O         18.19263         7.09805        -1.66047
O          5.44296        11.85907         1.95435
O          8.70199        12.79446         2.78798
O          8.26818         2.81221         2.41788
O         13.62343         6.08808        -0.88719
O         19.57546         5.82264         1.47928
O         16.23476         4.12351        -1.75248
O          5.63852         6.87565         2.42466
O         17.87285        16.99158         3.00971
O         19.52527         9.67405        -1.56156
O          9.97475         8.37800        -0.57089
O         11.68985        12.18582         2.98564
O         21.38345         5.84734        -1.64218
O         15.17469        10.63059        -0.82485
O         22.62036        18.56326         3.32406
H         22.01951        17.89603         3.73808
O          6.89581         9.97840         3.07590
H          6.43338        10.81215         3.32714
O         15.55011         1.64469        -2.04325
H         15.87091         2.42087        -2.56260
O         22.17087        12.19937         2.23304
H         22.89787        12.61029         2.74544
O         20.89889        12.79912        -1.13934
H         20.30389        12.24437        -1.68871
O         29.22404        14.50554        -2.51131
H         28.39967        14.00840        -2.70827
O         28.15950         8.02731         1.02033
H         29.00833         7.75089         1.42679
O         25.17443        17.09886         2.62284
H         24.46226        17.59748         3.09437
O         21.13821        16.17117         3.37891
H         20.41122        15.54014         3.62484
O          3.97338        16.05440        -4.51444
H          3.97195        15.07378        -4.49745
H          0.57673         1.35987        -1.45084
H          0.41770         3.79996        -1.39969
H          2.56496         0.14754        -0.64400
H          0.38186         5.79382        -1.23287
H          0.48156         8.21008        -1.42124
H          0.64024         9.99080        -1.80355
H          0.85698        12.30684        -2.44042
H          0.87291        14.23802        -2.58159
H          1.21345        16.43567        -3.58538
H          2.57283        18.50280        -3.79319
H          4.90210         0.15577         0.11843
H          4.47856        19.83230        -2.96229
H          7.31692         0.20776         0.67088
H          6.80908        19.88654        -2.16654
H          9.93281         0.35986         0.83278
H          9.10287        19.96757        -1.36709
H         12.18110         0.39786         0.86740
H         11.43953        20.05787        -0.64437
H         14.40969         0.24819        -0.19933
H         13.78902        20.14668        -0.03413
H         17.13749         0.29643        -0.20294
H         16.24694        20.18428         0.30456
H         19.53569         0.32706        -0.07431
H         18.71524        20.20046         0.76552
H         22.02766         0.32042        -0.17127
H         21.08085        20.25167         1.41295
H         24.49000         0.26042        -0.04072
H         23.41478        20.29744         1.02378
H         27.01900         0.36754         0.57070
H         25.76223        20.34816         0.24747
H         29.78228         0.19886        -0.31033
H         28.19057        20.42456        -0.08893
H         31.56098         1.62216        -0.94264
H         32.69908         3.59166        -1.35311
H         32.82438         6.03774        -1.34615
H         32.86082         8.04327        -1.51455
H         32.97000        10.45234        -1.33400
H         32.94824        12.49647        -0.91557
H         32.90952        14.93913        -0.75086
H         32.84554        16.89590        -1.17890
H         30.60238        20.52176        -0.52754
H         32.75118        19.36140        -1.02939
