         228
 CSIRO Nanostructure Databank - Neutral Graphene Oxide Data Set
C        -11.08064         0.54080         0.74041
C         -9.86031         1.32041         0.55924
C         -8.64986         0.57606         0.31751
C         -7.47882         1.32002        -0.20416
C         -6.16169         0.60970        -0.24793
C         -4.87090         1.33973        -0.29699
C         -3.68158         0.68577        -0.42157
C         -2.48820         1.39842        -0.96782
C         -1.21262         0.64652        -1.22538
C          0.04243         1.43809        -1.53824
C          1.38714         0.67277        -1.58933
C          2.57869         1.47018        -1.03484
C          3.80246         0.73249        -0.67180
C          4.95973         1.42526        -0.33352
C          6.12848         0.74818         0.24238
C          7.41999         1.45704         0.35133
C          8.61390         0.74770         0.54183
C          9.84025         1.48655         0.75441
C         11.06734         0.74808         0.90799
C         -9.86944         2.71641         0.56920
C         -8.69938         3.51423         0.34680
C         -7.48643         2.81952        -0.14440
C         -6.16479         3.53834        -0.03675
C         -4.86954         2.79475        -0.02561
C         -3.59586         3.56819        -0.21177
C         -2.54728         2.92923        -1.10282
C         -1.22398         3.67805        -1.02792
C          0.01150         2.94447        -1.46182
C          1.35952         3.67218        -1.44427
C          2.51920         2.83332        -0.90968
C          3.75109         3.62269        -0.66000
C          5.04385         2.88745        -0.41047
C          6.20291         3.57030         0.20651
C          7.39611         2.88953         0.41133
C          8.62171         3.62590         0.68641
C          9.82187         2.88200         0.82734
C         -8.65782         4.89916         0.50916
C         -7.44110         5.66438         0.47976
C         -6.15966         4.93303         0.47580
C         -4.84128         5.70873         0.30103
C         -3.64586         5.04292        -0.23036
C         -2.51594         5.77167        -0.59764
C         -1.26813         5.04548        -0.91343
C         -0.00990         5.82772        -1.28914
C          1.22174         5.06057        -0.85069
C          2.46195         5.79273        -0.60318
C          3.60237         4.98753        -0.00397
C          4.93158         5.73369         0.02656
C          6.09891         4.99920         0.65155
C          7.39914         5.77466         0.63155
C          8.59758         5.03822         0.72224
C         -7.39213         7.05461         0.57663
C         -6.17554         7.79946         0.44506
C         -4.94196         7.15867         0.19009
C         -3.75079         7.88264        -0.11064
C         -2.56901         7.21155        -0.50801
C         -1.33554         8.01069        -0.61579
C         -0.03308         7.31190        -0.85530
C          1.08787         7.87667         0.01142
C          2.43058         7.25254        -0.28126
C          3.59633         7.87512         0.46262
C          4.92702         7.21553         0.15350
C          6.14957         7.91859         0.61882
C          7.35091         7.17846         0.73441
C         -6.18179         9.23690         0.48834
C         -5.01986         9.95468         0.35867
C         -3.76330         9.31697         0.09288
C         -2.55630        10.03059         0.14745
C         -1.31686         9.39189        -0.05635
C         -0.09032        10.07150         0.06367
C          1.14699         9.39394         0.02092
C          2.38184        10.05236         0.16205
C          3.61627         9.37858         0.31634
C          4.84744        10.01806         0.53570
C          6.05272         9.31518         0.74858
C        -11.06310        -0.80610         0.86244
C         -9.76862        -1.55663         1.05716
C         -8.60082        -0.81230         0.45472
C         -7.39552        -1.55536         0.25136
C         -6.13047        -0.80340         0.20523
C         -4.83931        -1.53649         0.07925
C         -3.58705        -0.77872        -0.23451
C         -2.36314        -1.53725        -0.59456
C         -1.11655        -0.81803        -0.97585
C          0.05780        -1.49249        -1.04200
C          1.32360        -0.68001        -0.83428
C          2.60400        -1.44749        -1.12923
C          3.84836        -0.73015        -0.72820
C          5.00196        -1.43345        -0.42872
C          6.14875        -0.76188         0.20260
C          7.45732        -1.44561         0.30611
C          8.63894        -0.69229         0.52294
C          9.88471        -1.39147         0.69905
C         11.09101        -0.61641         0.87721
C         -9.77226        -3.01331         0.65420
C         -8.62020        -3.67715         0.37718
C         -7.34933        -2.95667         0.30086
C         -6.10715        -3.67901         0.18562
C         -4.87000        -3.00163        -0.05027
C         -3.68827        -3.69337        -0.34045
C         -2.50616        -2.99743        -0.98730
C         -1.19310        -3.71908        -0.84116
C          0.04302        -2.99842        -1.35759
C          1.32574        -3.71700        -0.99414
C          2.58952        -2.95541        -1.14795
C          3.87137        -3.68408        -0.87651
C          5.12532        -2.90104        -0.58110
C          6.27324        -3.59697         0.07642
C          7.48006        -2.84756         0.32770
C          8.70469        -3.55490         0.63920
C          9.90960        -2.78448         0.73865
C         -8.62729        -5.14753         0.01750
C         -7.32452        -5.86388         0.33040
C         -6.07926        -5.10891         0.29777
C         -4.83701        -5.77417         0.29105
C         -3.63249        -5.09715        -0.10450
C         -2.38304        -5.77171        -0.17892
C         -1.18053        -5.06478        -0.54305
C          0.06836        -5.83680        -0.82445
C          1.35331        -5.08041        -0.84864
C          2.60234        -5.77752        -0.53683
C          3.77568        -5.07791        -0.39554
C          4.95340        -5.68377         0.25907
C          6.21979        -4.94053         0.36410
C          7.36060        -5.62924         1.09255
C          8.66934        -4.92173         0.88320
C         -7.32635        -7.22781         0.41851
C         -6.10746        -7.98035         0.74023
C         -4.77959        -7.19271         0.66923
C         -3.54409        -7.94983         0.45450
C         -2.30736        -7.18319         0.25351
C         -1.04562        -7.97462         0.06597
C          0.08365        -7.32219        -0.66033
C          1.37954        -8.07453        -0.63414
C          2.65081        -7.26129        -0.49159
C          3.83223        -7.96398        -0.00243
C          4.97509        -7.18528         0.47745
C          6.28902        -7.85920         0.61608
C          7.41529        -7.12017         0.82240
C         -6.00316        -9.43277         0.53264
C         -4.79943       -10.06126         0.50569
C         -3.53284        -9.34574         0.48091
C         -2.30882       -10.08289         0.32804
C         -1.08152        -9.45916         0.10086
C          0.15644       -10.15072         0.01212
C          1.38862        -9.48764        -0.19644
C          2.64401       -10.11231        -0.05739
C          3.85432        -9.36538         0.03428
C          5.13169       -10.01427         0.30071
C          6.27740        -9.31083         0.51472
O          3.36562         7.61611         1.88865
H          4.03927         8.11612         2.39741
O         -8.88403        -5.27017        -1.39918
H         -8.18218        -4.78374        -1.87901
O          2.71131         6.85421        -1.63295
O          7.06027        -5.50963         2.53432
H          6.12851        -5.82493         2.64044
O          2.20073        -7.82291        -1.79828
O         -6.96038         0.77627        -1.46969
O          4.72262         3.50453        -1.72946
O          5.17091         6.55198        -1.13563
O         -2.80967        -2.98767        -2.42257
H         -1.94907        -2.97855        -2.91018
O         -2.59014        -1.19065         0.80961
O         -3.05246         3.20361        -2.43526
H         -2.51638         2.65364        -3.05480
O          5.74322         4.91987         2.09821
H          6.43859         4.38716         2.54241
O          1.33566        -0.32091         0.57495
H          0.98408        -1.06517         1.10675
O         -0.03128        -3.03523        -2.82202
H          0.81986        -2.65351        -3.15376
O          5.79755        -0.04899         1.44533
O         -5.32946        -1.05899         1.40001
O         -0.20131        -6.74816        -1.96664
O         -3.93600         3.02557         1.09563
O         -5.31172         5.18138         1.61294
O          3.15809         4.73426         1.35450
H          3.95265         4.68770         1.94200
O         -2.21541         0.81083        -2.29648
O         -1.30490        -7.36089         1.36699
O          1.65759         0.37986        -2.96294
H          1.43866         1.18898        -3.47955
O          0.70741         7.45149         1.35221
H          1.51390         7.50014         1.92228
O         -0.02546         5.82750        -2.75426
H         -0.32694         6.72889        -3.03193
O          4.87522        -3.46490        -1.91966
O         -0.17051         2.24079        -2.73869
O          2.61561        -2.16311        -2.39558
O         -9.54788        -1.56425         2.51546
H         -9.47272        -0.63071         2.80657
O         -0.57928         8.11334        -1.92795
O         -6.86552         3.44757        -1.31387
O         -5.43398        -7.50221         1.94561
O          1.77141         3.90178        -2.81965
H          1.16858         4.59418        -3.19466
O          4.59477        -6.27988         1.59047
H         12.04190        -1.15499         1.00200
H         11.99975         1.31250         1.05677
H         10.76357         3.42174         1.00939
H          9.55199         5.58134         0.80016
H          8.28922         7.72440         0.92178
H          6.95909         9.89111         0.98770
H          4.87444        11.11800         0.55502
H          2.38528        11.15430         0.17728
H         -0.10118        11.15721         0.24798
H         -2.57408        11.09656         0.42048
H         -5.03605        11.04924         0.46501
H         -7.13238         9.75626         0.67783
H         -8.33316         7.61842         0.66688
H         -9.59096         5.43330         0.74664
H        -10.81298         3.23536         0.79776
H        -12.03892         1.08223         0.71905
H        -12.00744        -1.36020         0.97489
H        -10.72444        -3.56421         0.70597
H         -9.47357        -5.66298         0.53538
H         -8.26306        -7.78533         0.26410
H         -6.93067       -10.00967         0.39914
H         -4.76244       -11.15497         0.39098
H         -2.35316       -11.18149         0.36913
H          0.16638       -11.23530         0.19945
H          2.68218       -11.19343         0.14404
H          5.16239       -11.11360         0.28591
H          7.22822        -9.84247         0.66705
H          8.38307        -7.63167         0.94411
H          9.59910        -5.45488         1.13343
H         10.86035        -3.30510         0.92755
