         294
 CSIRO Nanostructure Databank - Neutral Graphene Oxide Data Set
C          1.24585         2.39988         1.94622
C          1.18197         3.72152         1.55461
C          2.40596         1.61332         1.78030
C          2.28301         4.24378         0.65931
C          1.05745         6.38568        -0.18774
C          1.03713         7.60427        -0.75625
C          2.32138         5.81366         0.43601
C          2.27206         8.42572        -0.96088
C          1.03113        10.63847        -0.39886
C          1.02925        11.97433        -0.27225
C          2.27485         9.97865        -0.95316
C          2.25965        12.75378        -0.59941
C          1.03378        15.08031        -0.51549
C          1.07523        16.45194        -0.37849
C          2.25939        14.27778        -0.66480
C          2.28002        17.15945        -0.14783
C          2.36087        18.58198        -0.18371
C          3.70523         2.26111         1.66235
C          3.63193         3.74342         1.21566
C          4.97124         1.55263         1.48524
C          4.91552         4.40369         0.79628
C          3.51736         6.18053        -0.51236
C          3.56918         7.70512        -0.79289
C          4.85169         5.68279         0.02982
C          4.81373         8.48250        -0.52745
C          3.47510        10.55219        -0.14107
C          3.54762        12.05929        -0.32468
C          4.79836         9.84509        -0.38234
C          4.74255        12.72208        -0.17118
C          3.56364        14.99094        -0.42640
C          3.50172        16.36490         0.23950
C          4.81971        14.21054        -0.20022
C          4.79821        17.15502        -0.05384
C          3.50701        19.27717         0.10009
C          4.73768        18.58841         0.63795
C          6.19130         2.17353         1.13092
C          6.21656         3.66123         1.01288
C          7.34708         1.45308         0.82119
C          7.48057         4.34818         0.60989
C          6.07032         6.24298        -0.68183
C          6.11967         7.75277        -0.29785
C          7.36511         5.54890        -0.25233
C          7.29500         8.55756        -0.80145
C          6.03106        10.61689        -0.21097
C          5.98575        11.98947        -0.04838
C          7.32963         9.96406        -0.42341
C          7.28033        12.67223         0.34649
C          5.96480        14.87270         0.57287
C          6.03580        16.38536         0.37388
C          7.29264        14.18360         0.33244
C          7.20170        17.03911         0.58993
C          6.04987        19.21843         0.30894
C          7.25105        18.55462         0.90644
C          8.51340         2.05821         0.06172
C          8.78453         3.52638         0.50498
C          9.84321         1.33727         0.22387
C          9.89287         4.14110        -0.33663
C          8.50332         5.94738        -0.86406
C          8.45143         8.00782        -1.25432
C          9.85477         5.46825        -0.67590
C          9.78931         8.52826        -0.79486
C          8.49331        10.66733        -0.60871
C          8.48511        12.16636        -0.46575
C          9.70933         9.98862        -1.26268
C          9.81662        12.66174         0.16300
C          8.48111        14.83998         0.49165
C          8.44899        16.28560         0.85100
C          9.78485        14.17943         0.35106
C          9.72521        17.03970         1.02807
C          8.58994        19.18071         0.58129
C          9.76516        18.50630         0.76466
C         11.02274         1.92919        -0.13772
C         10.96199         3.24605        -0.89748
C         12.31046         1.35376         0.18156
C         12.27278         3.99995        -1.11664
C         11.00277         6.28677        -1.08636
C         11.01942         7.69044        -1.16641
C         12.24028         5.51552        -1.33137
C         12.27779         8.43281        -1.18092
C         11.01058        10.76157        -1.14857
C         11.02406        12.17355        -0.64190
C         12.28639         9.96659        -1.49100
C         12.36286        12.90073        -0.46465
C         10.96385        14.85942         0.48772
C         11.00779        16.25940         0.99041
C         12.27465        14.09306         0.52968
C         12.29316        17.03468         1.05161
C         11.06111        19.15517         0.67186
C         12.26679        18.50810         0.85245
C         13.50418         1.98699        -0.06797
C         13.54925         3.30007        -0.78072
C         14.74904         1.47987         0.46511
C         14.77310         4.11877        -0.41407
C         13.56022         6.29348        -1.30281
C         13.48752         7.75831        -1.10440
C         14.88304         5.49752        -1.15021
C         14.73050         8.45006        -0.57125
C         13.57266        10.71436        -1.02519
C         13.53783        11.96263        -0.11101
C         14.82482         9.94061        -0.84013
C         14.84337        12.76084        -0.13817
C         13.52627        14.96457         0.25376
C         13.55275        16.32980         0.86609
C         14.80345        14.12754         0.53346
C         14.82764        17.07453         1.10253
C         13.53457        19.18228         0.68112
C         14.76171        18.54684         0.73076
C         15.98335         2.04457         0.24481
C         16.05609         3.24057        -0.71838
C         17.13402         1.50892         0.95575
C         17.34682         4.08639        -0.69135
C         16.06437         6.30033        -0.51231
C         16.03921         7.75821        -1.00813
C         17.34379         5.56564        -0.87861
C         17.30548         8.52884        -0.62852
C         16.02406        10.59390        -0.14974
C         16.03868        12.10257        -0.25081
C         17.30511         9.88288        -0.54189
C         17.33791        12.75505        -0.06541
C         16.06853        14.92239         0.28377
C         16.05032        16.38949         0.52029
C         17.37094        14.16467         0.50613
C         17.32875        17.14409         0.68771
C         16.01109        19.24582         0.56083
C         17.24811        18.61938         0.55921
C         18.41998         1.61705         0.50807
C         18.56488         3.48623        -0.71809
C         19.64414         1.39981         1.26294
C         19.86778         4.15564        -0.53684
C         18.63209         6.33813        -0.79657
C         18.54890         7.75556        -0.25097
C         19.89736         5.61970        -0.51625
C         19.84349         8.52335        -0.38187
C         18.56951        10.68130        -0.79084
C         18.51741        12.08975        -0.23399
C         19.84905         9.92853        -0.45647
C         19.82933        12.78904         0.07383
C         18.53294        14.98115        -0.03761
C         18.59017        16.43394         0.33177
C         19.80334        14.27272        -0.33165
C         19.76678        17.23650        -0.20623
C         18.51398        19.30469         0.53085
C         19.71821        18.65112         0.34593
C         20.75752         2.15980         1.10782
C         20.97563         3.41728         0.33522
C         21.98569         4.30832         0.91190
C         21.01466         6.32694        -0.09438
C         21.04554         7.79852        -0.20382
C         22.07062         5.63276         0.59516
C         22.25803         8.50807        -0.16851
C         21.07589        10.62571        -0.38902
C         21.06796        12.13201        -0.56275
C         22.26925         9.89917        -0.25977
C         22.26748        12.87183        -0.00161
C         21.13597        15.04228        -0.48081
C         21.07451        16.49120         0.01383
C         22.26830        14.20995         0.08817
C         22.18502        17.19093         0.36664
C         20.96811        19.31257         0.60170
C         22.13816        18.60869         0.63365
O         13.07978         3.32946        -2.15536
O          3.69513         3.44630         2.59275
O          3.03112         7.96926        -2.15015
O          7.02794         4.38969         2.00299
O         15.89932        10.42436         1.27905
O         18.01517         6.05435        -2.09446
O         20.97801         3.42606        -1.11799
O         18.64420         2.08955        -0.79512
O          8.95249        16.60335         2.21647
O         12.89661         5.91977        -2.56432
O         14.56321        10.59940        -2.10732
O         11.66637        16.43418         2.30742
O         18.87298        14.62207        -1.40541
O         10.81465        11.92370        -2.05313
O          8.41004         6.81525        -1.96846
O          4.95457         5.71782         1.47136
O         18.25536        16.67639         1.72603
O          4.54159        14.83178        -1.49980
O          2.24082        13.46175        -1.88167
O         15.98550        15.84220        -0.84988
O         20.98475        12.39164        -2.00514
H         21.70033        11.88196        -2.44181
O         13.39977        11.42979         1.22357
H         14.29642        11.02028         1.45572
O          8.08528         2.06240        -1.32419
H          8.87980         2.25636        -1.88681
O          3.30494         5.51596        -1.77259
H          3.11222         6.22095        -2.44198
O         18.41124         7.54677         1.20053
H         18.14847         8.40338         1.60236
O          9.41106         9.93501        -2.68656
H         10.27112         9.92811        -3.17002
O          4.89268        17.42789        -1.45623
H          4.87839        16.56000        -1.93121
O         14.84156        13.85659         1.96246
H         14.16181        13.15469         2.14303
O         20.02536        12.73691         1.50495
H         19.20622        13.09494         1.93408
O          7.16246        18.60417         2.37187
H          7.87963        18.00815         2.71331
O          9.72689         8.50277         0.66111
H         10.56954         8.85404         1.02019
O         10.48330         2.92153        -2.25002
H         11.28872         2.68148        -2.76818
O         17.56378        14.03305         1.93623
H         16.69650        13.74351         2.31878
O         15.92655         2.67774        -2.03235
H         15.88715         3.43575        -2.66348
O         13.43821        15.51554        -1.08982
H         14.36655        15.67770        -1.41293
O          5.85249         6.09652        -2.08747
H          6.67816         6.37485        -2.54947
O         10.00872        12.04930         1.45072
H          9.18561        12.17957         1.98144
O         15.97753         7.77942        -2.44612
H         16.73255         7.23665        -2.78165
O         14.58482         4.27186         1.00138
H         15.31974         4.83030         1.36263
O          6.33228         7.76051         1.14269
H          6.65614         8.64729         1.40706
O         16.07101         6.29876         0.92571
H         15.44036         7.00207         1.24218
O         15.03559        17.01847         2.55184
H         14.23228        17.37117         2.99065
O          2.46046         6.46325         1.70059
H          3.36625         6.26360         2.05313
O          3.40231        16.08283         1.65542
H          3.58604        16.93311         2.13472
O          5.68185        14.62041         1.99000
H          6.19793        15.26256         2.52283
O         15.31790         5.20871        -2.49621
H         14.50256         5.18556        -3.05602
O          2.03374         3.58009        -0.59947
H          2.42840         4.11872        -1.33332
O         19.59800        17.36073        -1.64343
H         19.96212        16.53826        -2.05706
O         12.71366        13.42352        -1.75525
H         12.28389        12.84806        -2.43415
O         18.59724        10.85180        -2.24887
H         19.31052        11.50530        -2.44928
O          7.42117        12.33119         1.76835
H          6.75257        12.87855         2.24681
O         12.31256        13.61291         1.88517
H         12.10879        14.37564         2.47390
O         12.28751         9.96258        -2.94178
H         13.23748         9.91783        -3.21861
O          2.39744        10.42248        -2.31096
H          2.94440         9.76113        -2.79372
O          9.37140         3.46475         1.82719
H          8.67623         3.77050         2.46108
O         21.37283        15.16464        -1.91533
H         21.19813        14.26943        -2.30017
O          8.32229        12.76361        -1.76753
H          8.96003        12.32117        -2.37826
O          4.54784        18.41377         2.05405
H          5.44250        18.46747         2.48402
O          3.15454        10.30016         1.25910
H          3.91709        10.58130         1.80685
O         14.52088         8.35114         0.86762
H         15.07915         9.09308         1.29873
H          0.34388         1.91777         2.35476
H          0.24754         4.29044         1.65932
H          2.34868         0.51779         1.85181
H          0.12241         5.81057        -0.10188
H          0.09147         8.00088        -1.15895
H          0.14390        10.04084        -0.14280
H          0.13481        12.50851         0.08218
H          0.07146        14.58409        -0.70453
H          0.13714        17.02329        -0.45511
H          1.46591        19.13498        -0.51048
H          4.91783         0.45410         1.43562
H          3.53552        20.36582        -0.05412
H          7.32501         0.35762         0.93973
H          6.16330        19.57000        -0.72968
H          9.86406         0.36184         0.73625
H          8.61712        20.26386         0.38773
H         12.31689         0.40339         0.73816
H         11.06659        20.23482         0.45799
H         14.68413         0.58636         1.10684
H         13.50397        20.26115         0.46233
H         16.94980         1.02401         1.92753
H         15.96723        20.33785         0.42539
H         19.65291         0.61172         2.03277
H         18.52496        20.38229         0.76080
H         21.60177         1.92511         1.77897
H         22.68541         3.88393         1.64829
H         22.88249         6.22797         1.03716
H         23.21205         7.97101        -0.07692
H         23.23587        10.42195        -0.23458
H         23.12395        12.30546         0.39345
H         23.14587        14.71936         0.51337
H         23.16390        16.69584         0.44306
H         20.95753        20.38341         0.85437
H         23.07948        19.12001         0.87948
