         671
 CSIRO Nanostructure Databank - Neutral Graphene Oxide Data Set
C          5.98341        31.61844         0.34352
C          6.00199        32.98385         0.38914
C          8.39350        27.31405         0.29563
C          8.41115        28.69077         0.29734
C          7.19344        29.46135         0.28435
C          8.45920        31.55989         0.42565
C          7.20292        30.84604         0.35054
C          8.47842        32.97320         0.44800
C          7.23696        33.72259         0.43737
C          8.45508        35.87306         0.54559
C          7.24884        35.11542         0.51720
C          8.46459        37.25509         0.64840
C         10.67259        22.88435        -0.70896
C         10.42412        24.16860        -0.11510
C          9.50878        25.16325        -0.31228
C         10.92110        27.24756         0.18054
C          9.62703        26.46861         0.48271
C         10.89559        28.68576         0.19703
C          9.67936        29.40298         0.31903
C         10.91996        31.53433         0.48426
C          9.68463        30.82516         0.40839
C         10.90956        32.95277         0.63217
C          9.71694        33.66978         0.54573
C         10.95217        35.88866         0.85917
C          9.75991        35.15722         0.28142
C         10.93657        37.25923         0.82742
C          9.68855        38.00464         0.67690
C         10.87118        40.19354         0.73760
C          9.68272        39.39988         0.73507
C         10.84917        41.57545         0.85804
C         13.27137        18.78845        -0.78510
C         13.18365        20.16965        -1.10035
C         12.01100        20.87441        -0.87812
C         13.22583        23.03896        -0.84388
C         11.95475        22.30600        -0.78716
C         13.29886        24.46249        -0.64650
C         12.33028        25.17798         0.03272
C         13.32710        27.34483        -0.43396
C         12.14351        26.60444        -0.06209
C         13.32847        28.75344        -0.26871
C         12.12294        29.42833         0.07940
C         13.39906        31.54124         0.18278
C         12.14731        30.83446         0.27080
C         13.48337        32.93252         0.69830
C         12.17590        33.63728         0.96509
C         13.51961        35.84907         1.21458
C         12.17634        35.12411         1.18484
C         13.48534        37.35686         1.23585
C         12.16557        38.05368         1.07323
C         13.38112        40.26650         1.06127
C         12.18519        39.46208         0.50792
C         13.30053        41.65650         0.46633
C         12.03753        42.38508         0.75332
C         13.28898        44.52113         0.73612
C         12.05432        43.76325         0.80649
C         13.31934        45.90852         0.97615
C         15.79751        14.76704         0.40675
C         15.73072        16.01269        -0.22502
C         14.53332        16.75304        -0.30633
C         15.61210        18.65260        -1.64364
C         14.45311        18.03832        -0.87172
C         15.65351        20.14843        -1.35771
C         14.36923        20.91398        -1.68675
C         15.64200        23.07101        -1.37729
C         14.41919        22.37300        -1.25264
C         15.70559        24.49493        -1.32996
C         14.38893        25.23884        -1.34210
C         15.67490        27.39181        -1.11134
C         14.48625        26.66899        -0.87131
C         15.68117        28.79463        -0.93983
C         14.52538        29.48440        -0.51145
C         15.88878        31.56966        -0.12763
C         14.54581        30.89246        -0.22866
C         15.83185        33.10038        -0.10757
C         14.70459        33.75201         0.43888
C         15.84478        35.93615         0.23641
C         14.71225        35.15538         0.65733
C         15.86934        37.36731         0.35234
C         14.81626        38.09343         1.15658
C         15.83384        40.24768         0.48221
C         14.69146        39.55806         0.79040
C         15.85109        41.70203         0.30714
C         14.55362        42.41736         0.17684
C         15.74981        44.54272         0.60523
C         14.52122        43.86960         0.42971
C         15.77819        45.85924         1.06408
C         14.55283        46.59572         1.12602
C         15.89143        48.68396         1.23348
C         14.63849        48.00691         1.24880
C         15.93043        50.09974         1.08343
C         18.08881        10.75929         1.92652
C         18.20715        11.95520         1.15376
C         17.05333        12.77237         1.11726
C         18.26314        14.65459         0.12381
C         17.01668        14.04420         0.52281
C         18.26248        15.95225        -0.40559
C         16.97506        16.56826        -0.81434
C         18.28021        18.67294        -1.70661
C         16.95692        17.91799        -1.46823
C         18.23277        20.16471        -1.41534
C         16.94017        20.88191        -1.31033
C         18.16604        23.08772        -1.40549
C         16.90981        22.33269        -1.75451
C         18.17437        24.46386        -1.46509
C         16.91193        25.20384        -1.45455
C         18.12119        27.35327        -1.37692
C         16.92560        26.66109        -1.39287
C         18.16529        28.84308        -1.06472
C         16.86222        29.54536        -1.51198
C         18.16622        31.74071        -0.98998
C         16.81779        31.09671        -1.26650
C         18.18353        33.21509        -0.96972
C         16.97354        33.86948        -0.49107
C         18.13084        36.05630        -0.88084
C         16.96719        35.26811        -0.32912
C         18.24424        37.45309        -0.34076
C         17.04558        38.11600         0.04430
C         18.28295        40.24259         0.06503
C         17.08130        39.53099         0.25189
C         18.34369        41.69899         0.46703
C         17.01858        42.39207         0.25127
C         18.27751        44.46518         0.66344
C         17.00065        43.89519         0.04035
C         18.30088        45.73590         1.42263
C         17.00839        46.49664         1.68346
C         18.37569        48.63358         1.43361
C         17.11076        47.96496         1.36451
C         18.38313        50.09265         1.33447
C         17.14092        50.79798         1.11647
C         18.33935        52.94368         1.05745
C         17.15903        52.21584         0.96465
C         18.35787        54.35874         0.80091
C         20.57076         6.64183         3.22900
C         20.51422         7.87949         2.59966
C         19.31274         8.65530         2.71731
C         20.80605        10.37504         0.81397
C         18.96804         9.66750         1.81855
C         20.71059        11.80002         0.56733
C         19.45935        12.49915         0.59875
C         20.72366        14.54552         0.00290
C         19.49078        13.88728         0.26516
C         20.74240        16.05637        -0.04719
C         19.47192        16.68723        -0.59286
C         20.68799        18.79301        -0.96637
C         19.47945        18.00772        -1.03788
C         20.66120        20.16653        -1.14011
C         19.40001        20.86583        -1.29215
C         20.68378        23.04328        -1.50142
C         19.42392        22.35438        -0.99586
C         20.65150        24.49480        -1.61001
C         19.44779        25.17275        -1.47226
C         20.69401        27.39409        -1.24310
C         19.40350        26.63410        -1.25862
C         20.72000        28.86877        -1.40694
C         19.40176        29.55942        -1.69246
C         20.65297        31.78981        -1.45896
C         19.44187        31.00342        -1.21614
C         20.64491        33.17567        -1.36846
C         19.39731        33.89176        -1.12921
C         20.65385        35.98603        -0.93417
C         19.44593        35.31383        -0.92203
C         20.75954        37.36469        -0.32221
C         19.45757        38.15155        -0.41250
C         20.68890        40.30433        -0.73854
C         19.46252        39.56082        -0.26323
C         20.66964        41.80783        -0.47220
C         19.54638        42.45319        -0.07876
C         20.80906        44.62063         0.40290
C         19.50919        43.97710        -0.06223
C         20.85246        45.84252         1.03445
C         19.62675        46.42696         1.76029
C         20.86870        48.60991         1.97966
C         19.57354        47.92710         1.60156
C         20.82687        50.13777         1.84513
C         19.56524        50.82285         1.48532
C         20.78539        52.98330         1.36485
C         19.57939        52.24785         1.33840
C         20.73380        54.47430         1.54936
C         19.50343        55.11971         0.94704
C         20.67658        57.29345         0.79200
C         19.52616        56.51378         0.66051
C         20.71282        58.63583         0.34264
C         23.01834         3.89522         4.03324
C         21.79116         4.56468         3.79153
C         23.03376         6.56073         3.06431
C         21.77340         5.86732         3.30302
C         23.02675         7.82342         2.52048
C         21.77130         8.27855         1.78720
C         23.19865        10.36475         1.14118
C         21.88267         9.73181         1.35303
C         23.21965        11.75905         0.52938
C         21.93194        12.47871         0.35685
C         23.25683        14.48037        -0.36586
C         21.94261        13.85867         0.07231
C         23.26170        15.98549        -0.37271
C         21.96351        16.61759        -0.80043
C         23.22629        18.86493        -0.45313
C         21.94109        18.10844        -0.56622
C         23.20299        20.33916        -0.70443
C         21.88667        20.98566        -1.00337
C         23.17542        23.04004        -1.92131
C         21.87173        22.36993        -1.52905
C         23.13607        24.51935        -1.62362
C         21.94141        25.18344        -1.62129
C         23.20448        27.42435        -1.66952
C         21.92630        26.66631        -1.65919
C         23.23377        28.88202        -1.23972
C         21.88968        29.55382        -1.42743
C         23.18331        31.77626        -1.49736
C         21.90929        31.03197        -1.39016
C         23.16392        33.22796        -1.91599
C         21.87585        33.92729        -1.49686
C         23.09949        36.08805        -1.47946
C         21.86285        35.29345        -1.29517
C         23.10994        37.54307        -1.19431
C         22.00842        38.16217        -0.69006
C         23.21289        40.37137        -0.56958
C         21.95669        39.61148        -0.19107
C         23.20176        41.83164        -0.89858
C         21.91608        42.59464        -0.74150
C         23.35031        44.56210         0.15044
C         22.01957        44.01579        -0.20974
C         23.37306        45.72355         1.15448
C         22.10910        46.57426         1.15180
C         23.32585        48.73954         1.24935
C         22.12670        47.95381         1.37678
C         23.33983        50.15029         1.28965
C         22.10683        50.89800         1.61625
C         23.24537        53.06540         1.17866
C         22.04253        52.34656         1.33114
C         23.22329        54.51931         1.08872
C         22.01482        55.17714         1.17967
C         23.22334        57.43191         1.19056
C         21.94171        56.64775         1.23351
C         23.17489        58.94337         0.93256
C         21.88892        59.39380         0.25515
C         23.09137        61.35318        -0.60114
C         21.89192        60.65715        -0.36394
C         24.22583         4.53934         3.87875
C         25.49170         6.56283         3.25898
C         24.28439         5.90287         3.43715
C         25.53394         7.96041         2.92823
C         24.21928         8.71302         2.79752
C         25.52603        10.64766         1.92108
C         24.36772         9.92183         1.90997
C         25.61072        11.96104         1.30049
C         24.44520        12.56404         0.73322
C         25.66630        14.65116         0.40819
C         24.45993        13.89864         0.33575
C         25.70306        16.00762        -0.03683
C         24.44359        16.67873        -0.33216
C         25.67943        18.76035        -0.81253
C         24.50367        18.12159        -0.55815
C         25.67307        20.18115        -1.23484
C         24.44771        20.99380        -1.16018
C         25.72749        23.03082        -1.60990
C         24.45873        22.33117        -1.48768
C         25.69248        24.50607        -1.95425
C         24.45359        25.20907        -1.30426
C         25.72606        27.37778        -1.98581
C         24.45511        26.67976        -1.61706
C         25.67259        28.85162        -1.72709
C         24.39574        29.58229        -2.02142
C         25.60165        31.74136        -1.40615
C         24.46239        31.05031        -1.68947
C         25.54792        33.17199        -1.10552
C         24.41611        33.89607        -1.36489
C         25.64164        36.09821        -0.96876
C         24.43424        35.36839        -1.40824
C         25.68783        37.47055        -1.05213
C         24.45682        38.11136        -1.66630
C         25.74735        40.38882        -0.55801
C         24.49417        39.80293        -0.04507
C         25.75941        41.77853        -0.67805
C         24.51417        42.61292        -0.99278
C         25.80103        44.52188        -0.09044
C         24.50274        43.91314        -0.22635
C         25.85464        45.90983         0.42132
C         24.67054        46.53923         1.06922
C         25.78719        48.76852         0.56600
C         24.67603        48.05333         1.31583
C         25.62057        50.22341         0.23842
C         24.48629        50.93014         0.94969
C         25.64131        53.11751         0.58862
C         24.46393        52.34676         0.97219
C         25.69878        54.55299         0.67136
C         24.47369        55.26474         0.90926
C         25.67067        57.39960         0.68163
C         24.46575        56.67061         0.93441
C         25.61077        58.79530         0.34340
C         24.41611        59.48442         0.25716
C         24.32768        60.77439        -0.33579
C         26.70021         8.67121         2.88892
C         27.98886        10.79090         2.39821
C         26.67557        10.17822         2.79016
C         28.04877        12.03897         1.79737
C         26.81924        12.68320         1.33357
C         28.09593        14.74654         0.78405
C         26.86586        14.02351         0.85495
C         28.12025        16.03888         0.23743
C         26.92612        16.68380        -0.15848
C         28.20578        18.85150        -0.56531
C         26.98953        17.99885        -0.92090
C         28.20961        20.25730        -0.77522
C         26.99100        20.92993        -1.30002
C         28.26572        23.09050        -1.51411
C         26.92635        22.39837        -1.38926
C         28.15540        24.59101        -1.35616
C         26.96893        25.23302        -1.54633
C         28.18629        27.45512        -1.37049
C         26.88545        26.71333        -1.25156
C         28.17634        28.85280        -1.34679
C         26.93200        29.57840        -1.66272
C         28.10112        31.75335        -0.89324
C         26.92583        31.08634        -1.50397
C         28.04817        33.09193        -0.52318
C         26.76409        33.81999        -0.54708
C         28.09681        36.02305        -0.42067
C         26.79701        35.33721        -0.46004
C         28.11959        37.43855        -0.52141
C         26.90756        38.18553        -0.71186
C         28.20435        40.30233        -0.63656
C         26.95122        39.61303        -0.61430
C         28.21882        41.72471        -0.65177
C         27.01071        42.45290        -0.65800
C         28.26273        44.58439        -0.24622
C         26.99134        43.88602        -0.41286
C         28.26882        45.98713        -0.04017
C         26.96270        46.71478        -0.20329
C         28.18442        48.93690        -0.06776
C         26.94095        48.16818         0.17936
C         28.17408        50.40478         0.16638
C         26.92110        50.99385         0.23655
C         28.57932        53.44814         0.32608
C         26.73293        52.39977         0.09025
C         28.25966        54.71294         0.84097
C         26.95060        55.29284         0.68661
C         26.88613        56.70665         0.67929
C         29.27950        12.73726         1.65097
C         30.51369        14.82015         1.26337
C         29.33286        14.08809         1.21925
C         30.46110        16.30869         1.07477
C         29.45078        16.71197        -0.01053
C         30.57243        18.96982         0.05565
C         29.38018        18.22536        -0.12232
C         30.57383        20.37631        -0.15568
C         29.35992        21.01937        -0.51829
C         30.60812        23.23550        -0.59467
C         29.26977        22.53247        -0.49058
C         30.62285        24.61305        -0.83324
C         29.38820        25.33121        -1.10715
C         30.65768        27.52563        -1.25574
C         29.39123        26.71937        -1.20325
C         30.51926        28.81281        -0.44396
C         29.31331        29.60050        -0.90140
C         30.38369        31.56244         0.18904
C         29.26912        30.96302        -0.63969
C         30.38067        33.06856         0.22939
C         29.24560        33.79080        -0.05479
C         30.46716        35.93144         0.18120
C         29.27481        35.26977        -0.07813
C         30.67417        37.37637        -0.23214
C         29.37180        38.14356        -0.40540
C         30.72747        40.21822        -0.47096
C         29.41419        39.52387        -0.53053
C         30.77296        41.72615        -0.60543
C         29.49737        42.50426        -0.91430
C         30.70112        44.58489        -0.08136
C         29.48253        43.89502        -0.31868
C         30.69845        45.99310         0.12131
C         29.46657        46.68598         0.08767
C         30.64855        48.85237         0.66234
C         29.46815        48.16928         0.01750
C         30.63228        50.34046         0.47139
C         29.46289        51.09475         0.35296
C         29.56810        52.50872         0.64100
C         31.78928        16.96031         0.82502
C         33.02333        19.04317         0.42825
C         31.81662        18.29885         0.43491
C         33.04015        20.43746         0.18515
C         31.80545        21.12582        -0.07244
C         33.05848        23.24764        -0.26330
C         31.82273        22.53296        -0.30885
C         33.07629        24.66061        -0.44206
C         31.85663        25.35249        -0.72310
C         33.05740        27.49442        -0.65050
C         31.87645        26.75900        -0.83453
C         33.03351        28.94500        -0.65074
C         31.78108        29.63383        -0.53551
C         32.90437        31.78682        -0.22479
C         31.72939        31.00314        -0.24340
C         32.92310        33.11101         0.30433
C         31.61229        33.67519         0.86678
C         32.86388        35.92982         1.14300
C         31.58143        35.21218         0.84257
C         32.97371        37.39527         0.88387
C         31.64738        38.14185         0.70836
C         32.99176        40.26846         0.51397
C         31.84764        39.55793         0.21498
C         33.08103        41.70116         0.32812
C         31.94571        42.43994        -0.06154
C         33.16394        44.57060         0.25132
C         31.93928        43.85569         0.01255
C         33.15974        45.98843         0.28230
C         31.95058        46.73376         0.25518
C         31.93502        48.12828         0.37575
C         34.25934        21.16064         0.20535
C         35.51207        23.28566         0.01800
C         34.29613        22.55597        -0.00842
C         35.54305        24.69056        -0.15912
C         34.29807        25.38787        -0.36265
C         35.50856        27.54746        -0.44128
C         34.29638        26.80690        -0.47393
C         35.48748        28.97867        -0.58178
C         34.22741        29.67023        -0.64786
C         35.40817        31.86461        -0.38914
C         34.15164        31.17509        -0.81093
C         35.39377        33.15749         0.15785
C         34.12512        33.79150         0.52166
C         35.42667        35.85875         1.38842
C         34.10716        35.04839         1.39622
C         35.36836        37.37307         1.68570
C         34.12570        38.06632         1.13681
C         35.45904        40.30601         1.26916
C         34.11126        39.55621         1.17278
C         35.49711        41.69663         0.84670
C         34.31994        42.41219         0.57372
C         34.34804        43.82452         0.44622
C         36.74600        25.43383        -0.14527
C         37.95730        27.58676        -0.34286
C         36.75729        26.84704        -0.30682
C         37.95976        29.00502        -0.51032
C         36.69635        29.69256        -0.61857
C         37.91546        31.79915        -0.20267
C         36.67771        31.19002        -0.86008
C         37.85779        33.30900        -0.24562
C         36.61371        33.90434         0.22669
C         37.92338        36.04718         0.71744
C         36.67343        35.24219         0.82784
C         37.86222        37.41290         1.03099
C         36.64833        38.10740         1.28666
C         36.66385        39.48468         1.20860
C         39.17568        29.70760        -0.54190
C         40.40384        31.87367        -0.07294
C         39.22968        31.19866        -0.75483
C         40.38273        33.18612         0.21910
C         39.19577        34.04514        -0.01419
C         39.14205        35.39514         0.51921
O         21.84643        43.72294        -1.66391
O         22.57197        57.14467         2.47895
O         25.75226        45.94216         1.89122
O         23.20988        40.82276        -1.96028
O         27.67455        53.04699        -0.69319
O         16.96930        44.19110        -1.32856
O         23.86088        35.81488        -2.71396
O         19.65347         9.61786         0.58764
O         12.88693        35.38005         2.44032
O         34.55428        40.09542         2.42900
O         31.13582        40.85845        -1.74003
O         13.72551        41.84093        -0.91776
O         22.46123        18.48976         0.74001
O         16.91825        16.70640        -2.30640
O         16.21093        20.53992        -0.07042
O         18.27704        44.41350         2.10939
O         26.49700        34.50832         0.73176
O         28.97878        48.62093        -1.28626
O         24.47657        39.02970         0.91974
O         18.92519        31.20791         0.13847
O         12.91635        32.97025         2.04565
O         21.54904        50.72276         2.98527
O         11.44258        24.47461         0.84825
O         22.44577        27.19637        -2.93856
O         22.48078        21.04488         0.36713
O         36.34570        35.20062         2.31445
O         38.55768        33.93837        -1.34680
O         22.66608        31.51696        -0.15006
O         24.54079        38.86259        -2.61991
O         26.41416        20.31695        -2.50141
O         12.73215        37.86620         2.40037
O         31.85032        35.73978         2.20680
O         23.44963        10.58206        -0.30439
O         27.14460        30.52309        -2.84143
O         20.12812        26.98180         0.03903
O         19.46536        22.46847         0.46383
H         20.31929        22.08994         0.77003
O         24.67117        42.96783        -2.38803
H         24.47921        42.16092        -2.91603
O         31.58213        33.24180         2.25686
H         32.36065        33.67501         2.70276
O         18.54657        18.58141        -3.13622
H         18.39040        17.64293        -3.38838
O         16.73900        29.31064        -2.94489
H         16.21697        30.06276        -3.31324
O         15.35122        38.08017         2.53192
H         15.05826        37.24864         2.96327
O         28.71656        22.87839         0.81614
H         29.32444        22.53734         1.50540
O         35.24994        37.46167         3.12837
H         35.98203        36.91755         3.49695
O         24.57794        25.03857         0.14365
H         25.21959        25.72395         0.46787
O         21.71036         7.48333         0.56499
H         20.94704         7.82304         0.04788
O         23.16523        59.60405         2.23140
H         22.72281        58.97706         2.85306
O          9.95950        35.23879        -1.18382
H          9.12943        34.93307        -1.60831
O         14.18867        20.96672        -3.12267
H         14.41640        20.07558        -3.48239
O         23.23462        22.96188        -3.38754
H         24.03765        23.47244        -3.66921
O         20.88881        37.08357         1.11018
H         21.01450        37.95593         1.55949
O         19.32885        29.56065        -3.13644
H         18.38236        29.44874        -3.41074
O         23.36794        14.09047        -1.79291
H         24.28377        14.29170        -2.08369
O         36.74348        31.39788        -2.30273
H         35.81085        31.36779        -2.64470
O         20.60742        54.67571         3.00420
H         19.91977        54.05600         3.32883
O         21.79254        16.36760        -2.21352
H         22.14941        15.46446        -2.40024
O         13.99471        25.32889        -2.75979
H         14.64623        25.90636        -3.21162
O         25.93192        27.20352        -3.45853
H         25.22055        27.74610        -3.88016
O         13.23681        40.46257         2.48285
H         13.24854        39.56644         2.90317
O         16.77628        46.43558         3.12747
H         17.10430        45.55764         3.42580
O         26.68706        46.73965        -1.63846
H         27.45957        47.17492        -2.06647
O         34.04114        31.38681        -2.30909
H         33.27863        30.84613        -2.61330
O         16.47044        31.15036         1.12233
H         15.87975        31.42997         1.85194
O         23.55409        28.91456         0.15922
H         23.33175        29.81984         0.49043
O         23.35686        45.05752         2.44840
H         24.29406        44.99669         2.74814
O         29.92765        16.87152         2.32680
H         30.54951        16.63745         3.04729
O         26.39838        10.65923         4.15531
H         25.50037        10.31171         4.39146
O         25.55437        24.55565        -3.40028
H         25.66399        25.50792        -3.67845
O         16.91318        22.24087        -3.22118
H         16.65285        23.11302        -3.58522
O         30.14558        31.09625         1.56479
H         30.66243        31.70670         2.15476
O         31.02970        38.26397         2.00652
H         31.09892        37.37750         2.44418
O         12.37857        39.29293        -0.91591
H         12.63749        40.16115        -1.30190
O         18.57457        41.68487         1.91678
H         17.79845        41.26041         2.34087
O         26.54972        26.85370         0.17961
H         27.33597        26.57964         0.70003
O         21.86772        39.59867         1.25091
H         22.74084        39.26472         1.58334
O         23.94942         9.26477         4.15378
H         23.88543         8.50011         4.76666
O         27.16551        17.60873        -2.31657
H         28.02433        17.13312        -2.37505
O         20.87246        16.46753         1.33948
H         20.06545        16.18866         1.81950
O         37.82784        31.42380         1.19427
H         38.61654        31.77217         1.66101
O         18.21016        28.88761         0.36644
H         18.97084        28.33190         0.66550
O         15.27452        18.52369        -3.05162
H         15.55455        17.61660        -3.32046
O         29.91265        16.23086        -1.30470
H         30.81951        16.58154        -1.44094
O         39.39381        31.42070        -2.17337
H         38.49568        31.42895        -2.58727
O         28.79208        22.79126        -2.82849
H         28.07347        22.92659        -3.48191
O         19.86695        46.14173         3.15846
H         19.72112        45.17600         3.27441
O         16.29876        31.68343        -2.48733
H         16.38747        32.65999        -2.43146
O         30.85733        27.93939        -2.64032
H         30.83891        27.13719        -3.20302
O         33.96508        34.53901         2.75242
H         34.04419        35.30433         3.36303
O         25.05007        48.25353         2.71530
H         25.67650        47.52812         2.94712
O         24.10351        29.44519        -3.44817
H         24.73305        30.02647        -3.92806
O         25.16579        50.21032        -1.16852
H         25.83959        49.72858        -1.69584
O         31.35967        37.33841        -1.52299
H         30.72665        37.01477        -2.19778
O         19.32329        44.45359        -1.41356
H         20.02219        44.05598        -1.98620
O         20.66329        40.12656        -2.17501
H         21.52113        40.45747        -2.53959
O         17.78644        36.24396        -2.31342
H         18.41587        36.89831        -2.68721
O         21.02371        48.32623         3.39445
H         21.52535        49.08274         3.78187
O         30.31375        28.43353         0.93952
H         30.22830        29.27984         1.45331
O         30.39441        48.65711         2.11690
H         31.18580        48.97697         2.60023
O         29.48855        42.74142        -2.35510
H         29.95470        41.97554        -2.76631
O         23.24152        33.24930        -3.36346
H         23.39283        34.19179        -3.62130
O          9.65261        26.14779         1.90607
H         10.38137        25.49438         2.03116
H          5.02479        31.08082         0.30051
H          5.05755        33.54790         0.38776
H          7.42419        26.79181         0.30374
H          6.23348        28.92491         0.24078
H          6.29029        35.65429         0.57613
H          7.51108        37.80034         0.72601
H          9.81307        22.25916        -0.99720
H          8.68974        25.03906        -1.03424
H          8.71135        39.91919         0.76225
H          9.88299        42.08462         1.00442
H         12.38891        18.31458        -0.32435
H         11.09691        20.31417        -0.62294
H         11.11879        44.31388         0.99006
H         12.37640        46.46476         1.08752
H         14.87733        14.32172         0.81384
H         13.62982        16.33308         0.16323
H         13.71517        48.60608         1.24645
H         14.98847        50.65270         0.95504
H         17.26404        10.71229         2.65487
H         16.11839        12.36456         1.53073
H         16.21267        52.73781         0.75932
H         17.42904        54.83496         0.45049
H         19.66081         6.23468         3.69702
H         18.65556         8.45043         3.57742
H         18.60527        56.98565         0.28252
H         19.78162        59.06996        -0.05632
H         22.99642         2.85515         4.38850
H         20.84383         4.05028         4.00815
H         23.04940        62.33662        -1.09030
H         20.94260        61.07860        -0.72774
H         25.16632         4.01880         4.11045
H         26.44030         6.02616         3.41047
H         26.53828        59.27983        -0.00038
H         25.25027        61.27630        -0.66365
H         27.65697         8.16813         3.10095
H         28.91581        10.31580         2.75562
H         29.02412        55.30805         1.36216
H         27.82333        57.27669         0.60105
H         30.20789        12.25130         1.98841
H         31.44015        14.34886         1.62820
H         31.57261        50.87983         0.67108
H         30.44840        52.83873         1.21272
H         32.71733        16.46682         1.15327
H         33.96646        18.53134         0.67035
H         34.11367        46.52028         0.41430
H         32.88744        48.67259         0.47239
H         35.19729        20.61919         0.39835
H         36.45447        22.74513         0.19263
H         36.47050        42.20601         0.78566
H         35.29925        44.35336         0.60526
H         37.70239        24.90578        -0.01454
H         38.91918        27.06208        -0.24440
H         38.78495        38.00729         0.95083
H         37.59811        39.98528         0.90967
H         40.11846        29.13884        -0.50967
H         41.30998        31.28154         0.12930
H         41.25318        33.66160         0.69844
H         40.08176        35.92393         0.73836
