         634
 CSIRO Nanostructure Databank - Neutral Graphene Oxide Data Set
C         23.67380        69.64078        -3.14330
C         23.73809        71.00840        -3.55501
C         22.67608        71.61109        -4.26891
C         23.85930        73.72565        -4.33183
C         22.75098        72.95685        -4.65290
C         25.79021        65.59937        -1.30701
C         25.80369        66.96226        -1.53122
C         24.52704        67.63198        -1.96894
C         25.91469        69.77485        -2.17338
C         24.71151        69.04374        -2.46324
C         25.98016        71.15539        -2.53382
C         24.88988        71.77035        -3.21666
C         26.05395        73.93498        -3.24999
C         24.95437        73.16438        -3.59945
C         28.07739        61.40528        -0.13773
C         28.07622        62.82922        -0.24261
C         26.92707        63.51529        -0.65555
C         28.10884        65.66979        -0.48306
C         26.93902        64.91677        -0.81907
C         28.09361        67.07577        -0.67927
C         26.98019        67.72426        -1.25237
C         28.23166        69.88430        -1.33315
C         27.03505        69.14275        -1.55676
C         28.26939        71.27564        -1.66787
C         27.15495        71.90763        -2.21309
C         28.54503        73.80819        -3.04823
C         27.19101        73.40671        -2.43515
C         30.42019        57.12410         0.69728
C         30.43316        58.50494         0.56848
C         29.14551        59.19766         0.19790
C         30.45410        61.40185         0.40735
C         29.22521        60.70552         0.16758
C         30.47284        62.83491         0.36711
C         29.28353        63.55377         0.04037
C         30.48526        65.68217         0.29298
C         29.28976        64.97600        -0.03446
C         30.46822        67.16754         0.30396
C         29.23354        67.89077        -0.22318
C         30.62598        69.92784        -0.63366
C         29.38075        69.26541        -0.72741
C         30.73925        71.28309        -1.07681
C         29.48427        72.10159        -1.29065
C         30.92325        73.82857        -2.35732
C         29.70195        73.25732        -2.25086
C         32.77701        52.80888         1.09628
C         32.75803        54.19898         1.14736
C         31.58095        54.96574         1.00552
C         32.84573        57.09662         1.07615
C         31.60633        56.37784         0.95164
C         32.85919        58.52067         0.96919
C         31.64444        59.24222         0.72945
C         32.87869        61.39110         0.86681
C         31.65447        60.67559         0.66978
C         32.90103        62.82089         0.86894
C         31.67879        63.55256         0.63563
C         32.85208        65.72965         1.08216
C         31.65260        64.97881         0.63366
C         32.90944        67.21568         0.84360
C         31.74330        67.89878         0.25557
C         33.10913        69.89319        -0.26235
C         31.82073        69.22502        -0.17384
C         33.18785        71.21975        -0.78162
C         31.98502        71.90790        -1.17726
C         33.32005        73.87045        -1.82528
C         32.09985        73.23721        -1.74657
C         35.29708        48.53699         0.84158
C         35.25532        49.95703         0.83631
C         34.05069        50.66352         1.08590
C         35.23322        52.77110         0.80082
C         34.01674        52.06775         1.04331
C         35.20633        54.26556         0.64522
C         34.07081        54.88611         1.46237
C         35.27747        57.05577         1.36038
C         34.06340        56.38574         1.28132
C         35.30470        58.49008         1.30282
C         34.08919        59.22521         1.08969
C         35.31570        61.37603         1.16666
C         34.09626        60.66364         1.04532
C         35.33916        62.78752         1.21307
C         34.13608        63.50097         1.08184
C         35.44328        65.70104         1.10419
C         34.14920        64.97645         1.26273
C         35.48564        67.07496         0.81023
C         34.25675        67.89403         0.73015
C         35.57385        69.82167        -0.11335
C         34.31748        69.21863         0.07691
C         35.65128        71.19066        -0.55370
C         34.44063        71.87975        -0.88407
C         35.75298        73.88617        -1.43717
C         34.52408        73.23202        -1.37407
C         37.76145        44.27454         0.63918
C         37.73345        45.68428         0.55230
C         36.53128        46.40932         0.73948
C         37.71238        48.51888         0.31101
C         36.50053        47.81521         0.62119
C         37.63915        49.97912        -0.04691
C         36.44206        50.68948         0.52285
C         37.63072        52.85863         0.00147
C         36.42281        52.08943         0.50953
C         37.68777        54.27962         0.55533
C         36.54765        54.89793         0.94232
C         37.82186        57.02611         1.34100
C         36.55144        56.25916         1.60315
C         37.77434        58.45283         1.70103
C         36.52683        59.17969         1.42262
C         37.89855        61.36362         1.31190
C         36.57003        60.60699         1.15583
C         37.87933        62.80260         1.51137
C         36.57529        63.53021         1.70512
C         37.89479        65.61425         1.15559
C         36.65252        64.96853         1.24368
C         37.94431        67.00714         0.82159
C         36.73373        67.73206         0.62321
C         38.04197        69.73632         0.08117
C         36.79334        69.10444         0.20697
C         38.16694        71.07554        -0.59414
C         36.88771        71.85734        -0.63546
C         38.17235        73.93152        -0.92730
C         36.95968        73.24091        -1.01299
C         40.32616        39.96562         0.64559
C         40.35065        41.46442         0.77755
C         39.02689        42.15883         0.65257
C         40.15976        44.29259         0.10686
C         38.96925        43.54789         0.45910
C         40.16525        45.68746         0.08309
C         38.95276        46.40853         0.30985
C         40.17746        48.57117         0.06083
C         38.92762        47.83270         0.21394
C         40.16432        49.95958         0.07723
C         38.93677        50.73266         0.16540
C         40.22480        52.87388        -0.04442
C         38.93150        52.10422         0.20329
C         40.25974        54.31228         0.42826
C         38.96639        55.07370         0.33924
C         40.28631        57.08983         1.14288
C         39.00147        56.40754         1.03790
C         40.33222        58.44550         1.50143
C         39.08897        59.18533         1.77123
C         40.33636        61.31650         1.70444
C         39.12068        60.63705         1.62767
C         40.34157        62.74361         1.65061
C         39.09966        63.47033         1.60536
C         40.36712        65.55083         1.38027
C         39.13922        64.90416         1.42573
C         40.48046        66.92842         0.79431
C         39.18516        67.68559         0.72857
C         40.51168        69.77520         0.47990
C         39.23786        69.04764         0.40430
C         40.51912        71.21448         0.21448
C         39.37325        71.86399        -0.14988
C         40.65569        73.98008        -0.46184
C         39.31865        73.37179        -0.13653
C         42.75143        35.69997         0.21089
C         42.70107        37.13553         0.13665
C         41.52507        37.83634         0.37196
C         42.68765        39.98615        -0.09443
C         41.47225        39.27225         0.31020
C         42.67480        41.35970        -0.27794
C         41.38899        42.07665        -0.13878
C         42.59778        44.29963        -0.79362
C         41.33620        43.54687        -0.38482
C         42.63340        45.71622        -0.26683
C         41.42325        46.40972        -0.08478
C         42.67684        48.49072         0.08637
C         41.43202        47.83156         0.01349
C         42.72109        49.96263         0.08789
C         41.43517        50.70472         0.02337
C         42.75115        52.80750         0.36993
C         41.41653        52.11562         0.56263
C         42.70911        54.26923        -0.01362
C         41.45570        54.97863         0.49785
C         42.73469        57.07962         1.02607
C         41.51233        56.39598         0.86932
C         42.78589        58.45126         1.40754
C         41.56068        59.15856         1.56909
C         42.80790        61.26794         1.78695
C         41.57686        60.57702         1.74066
C         42.80813        62.70070         1.79172
C         41.58103        63.43000         1.70124
C         42.83250        65.54527         1.76486
C         41.59658        64.85217         1.62446
C         42.82094        67.03571         1.87291
C         41.58332        67.75154         1.42024
C         42.85964        69.94404         1.40188
C         41.61674        69.17797         1.02139
C         42.91832        71.31873         0.78888
C         41.78714        71.94111         0.34690
C         43.10260        73.97928        -0.21811
C         41.82780        73.33186        -0.13375
C         45.21667        32.90905        -0.01478
C         44.00648        33.58243         0.14333
C         45.23783        35.78891         0.11635
C         43.94556        35.00001         0.11884
C         45.10373        37.06939        -0.70791
C         43.89870        37.86207        -0.25548
C         45.05578        39.93316        -1.01087
C         43.88253        39.22678        -0.37579
C         45.10491        41.40859        -0.70804
C         43.88150        42.11577        -0.54587
C         45.10916        44.23830        -0.49313
C         43.87758        43.52731        -0.53472
C         45.12468        45.66198        -0.28780
C         43.88012        46.38341        -0.15291
C         45.16084        48.49449         0.25114
C         43.90038        47.78234         0.10231
C         45.17973        49.89740         0.46961
C         43.89456        50.63320         0.76888
C         45.21915        52.81982         0.50288
C         43.92443        52.12739         0.49518
C         45.24881        54.20761         0.44693
C         44.01966        54.99742         0.25485
C         45.28295        57.04122         1.22182
C         44.02449        56.42886         0.71161
C         45.27983        58.41521         1.60199
C         44.03185        59.13845         1.61021
C         45.28816        61.24894         1.97968
C         44.04532        60.53889         1.80754
C         45.26708        62.66136         1.98820
C         44.03500        63.40187         1.86020
C         45.29147        65.57480         2.21878
C         44.02334        64.82532         1.89006
C         45.31220        66.92634         1.58601
C         44.14733        67.80384         1.91730
C         45.43082        69.74880         0.96699
C         44.08577        69.04567         1.00622
C         45.41964        71.16803         0.43120
C         44.23551        72.03165         0.94465
C         45.52008        74.01602         0.21518
C         44.27409        73.37989         0.25341
C         46.42110        33.59271        -0.24680
C         47.63474        35.71058        -0.56986
C         46.46581        35.00018        -0.28624
C         47.64939        37.13469        -0.66902
C         46.39293        37.85998        -0.66283
C         47.59551        39.98343        -0.89205
C         46.36994        39.22728        -0.77426
C         47.55941        41.36914        -0.93951
C         46.32343        42.09765        -0.75931
C         47.57275        44.22946        -0.44368
C         46.34050        43.52254        -0.57320
C         47.57563        45.59969        -0.20729
C         46.35511        46.34384        -0.12724
C         47.62718        48.45765         0.31730
C         46.38144        47.76498         0.14724
C         47.62006        49.85660         0.51568
C         46.40345        50.60677         0.52923
C         47.68573        52.74450         0.70577
C         46.43116        52.04577         0.60631
C         47.72300        54.15916         0.76965
C         46.53412        54.99197         0.39682
C         47.70327        56.96510         1.49882
C         46.48247        56.32988         1.12784
C         47.69861        58.31955         1.93728
C         46.50296        59.07753         1.92186
C         47.72425        61.21744         2.44199
C         46.53455        60.52521         2.13143
C         47.68532        62.65721         2.47824
C         46.50009        63.37788         2.10914
C         47.76718        65.49033         2.00984
C         46.54199        64.78164         1.99402
C         47.81491        66.89015         1.72949
C         46.58909        67.51659         1.07078
C         47.94694        69.68590         0.87658
C         46.58238        69.03858         1.05855
C         47.89174        71.19665         0.97881
C         46.72074        71.89084         0.68700
C         47.90781        74.02198         0.84130
C         46.71646        73.32613         0.60316
C         48.84414        37.84783        -0.84130
C         50.06058        39.97575        -1.10329
C         48.86009        39.26250        -0.95629
C         50.08953        41.39442        -1.18289
C         48.79089        42.17139        -1.25555
C         50.07933        44.23515        -0.82875
C         48.87198        43.44234        -0.40333
C         49.97017        45.72299        -0.90703
C         48.90899        46.25277         0.06767
C         50.08254        48.43627        -0.02249
C         48.88257        47.76185         0.10987
C         50.19349        49.82302         0.44016
C         48.88046        50.56110         0.76332
C         50.15767        52.69694         0.75794
C         48.91208        52.02404         0.75793
C         50.15665        54.10107         0.93699
C         48.93857        54.83000         0.97880
C         50.15677        56.94478         1.28463
C         48.94619        56.25124         1.27961
C         50.23601        58.29285         1.88180
C         48.97075        58.96956         2.34694
C         50.33751        61.10402         2.44460
C         48.99801        60.43181         2.83727
C         50.56639        62.41937         2.88835
C         48.74086        63.49117         2.92514
C         50.21584        65.50480         2.47565
C         48.94303        64.82314         2.48829
C         50.23707        66.86565         2.14652
C         49.01793        67.57644         1.85510
C         50.31455        69.78756         1.75918
C         48.97077        69.09666         1.87093
C         50.30051        71.20484         1.63273
C         49.08648        71.90443         1.29028
C         50.27949        74.05108         1.47976
C         49.08986        73.33592         1.21444
C         51.26614        42.11392        -1.26483
C         52.45414        44.29305        -1.41716
C         51.27577        43.56940        -1.19166
C         52.59877        45.68720        -0.88649
C         51.29607        46.42545        -0.75640
C         52.50095        48.55857        -0.70124
C         51.30868        47.78047        -0.47176
C         52.50180        49.96687        -0.49391
C         51.37358        50.61857         0.09441
C         52.53352        52.75397        -0.02445
C         51.38425        52.00303         0.35969
C         52.65950        54.16326         0.37106
C         51.41527        54.84169         0.94627
C         52.48181        57.03997         0.46276
C         51.37021        56.30190         0.90999
C         52.36112        58.51582         0.54280
C         51.56391        59.01732         1.73501
C         52.55271        61.29444         1.39594
C         51.42707        60.51912         1.76364
C         52.61100        62.70054         1.68452
C         51.54478        63.28673         2.41708
C         52.74426        65.48465         2.36727
C         51.52585        64.74032         2.85363
C         52.73000        66.95526         2.63843
C         51.54878        67.58183         1.83461
C         52.72729        69.81834         2.16326
C         51.52679        69.09847         1.98978
C         52.72744        71.25022         2.07591
C         51.50170        71.93988         1.81253
C         52.68788        74.10143         1.94471
C         51.48704        73.37812         1.75544
C         53.64692        46.53902        -1.53684
C         54.75357        48.72539        -1.73416
C         53.64453        47.92251        -1.33562
C         54.80732        50.11714        -1.47500
C         53.62482        50.75283        -0.89326
C         54.68528        52.96311        -1.36513
C         53.59751        52.14337        -0.70907
C         54.71288        54.41782        -0.98905
C         53.67102        55.02108        -0.27888
C         54.43159        57.28223        -1.11541
C         53.58126        56.43842        -0.17791
C         54.61871        58.72236        -0.64879
C         53.45310        59.37296         0.00669
C         54.76879        61.42786         0.32671
C         53.63080        60.72469         0.59404
C         55.02670        62.72664         1.04450
C         53.76469        63.46332         1.38801
C         54.99465        65.62062         1.33281
C         53.80397        64.86254         1.69844
C         55.05637        67.02561         1.66790
C         54.00316        67.66665         2.27037
C         55.23790        69.86139         2.08104
C         54.02464        69.13562         2.60550
C         55.27181        71.34623         2.34017
C         53.92509        72.00594         2.16812
C         55.15438        74.15990         2.08531
C         53.91424        73.42739         2.09020
C         55.96873        50.86868        -1.67714
C         57.12636        53.12890        -1.84015
C         56.05059        52.29457        -1.19300
C         57.03447        54.51035        -1.91487
C         55.81536        55.20472        -1.46356
C         56.82286        57.38274        -2.02828
C         55.71953        56.58672        -1.49126
C         56.84827        58.89046        -1.72269
C         55.71751        59.46120        -0.94729
C         57.10889        61.57281        -0.62261
C         55.72659        60.96485        -0.75040
C         57.16630        62.90969        -0.23156
C         56.05668        63.59313         0.37250
C         57.15264        65.80118         0.05098
C         56.05896        64.97719         0.63791
C         57.27167        67.23861         0.44546
C         56.41132        67.70860         1.60405
C         57.58168        69.95229         1.34064
C         56.36079        69.21904         1.64556
C         57.59810        71.33911         1.35573
C         56.27055        72.05403         1.42556
C         57.57005        74.20460         1.60576
C         56.36049        73.52241         1.77957
C         58.14423        55.30421        -2.33941
C         59.23480        57.50301        -2.57390
C         58.10692        56.70903        -2.32209
C         59.27920        58.90176        -2.27449
C         58.14378        59.57070        -1.71084
C         59.50699        61.55728        -1.31214
C         58.26265        60.88892        -1.17432
C         59.68107        62.92470        -0.82142
C         58.45623        63.63267        -0.27812
C         59.69757        65.83764        -0.53065
C         58.41128        65.11113        -0.41690
C         59.76382        67.20604        -0.26225
C         58.57769        67.94140         0.25216
C         59.97447        69.99407         0.48521
C         58.85506        69.17487         1.09415
C         59.97918        71.43539         0.66902
C         58.78385        72.09549         1.09869
C         59.89731        74.27751         0.81476
C         58.76149        73.53734         1.17621
C         60.48432        59.61447        -2.44285
C         61.78450        61.70453        -2.25729
C         60.60034        60.95897        -2.01905
C         61.90008        63.08443        -1.93582
C         60.81244        63.74243        -1.28156
C         62.04631        65.87284        -1.30489
C         60.85571        65.13449        -1.01338
C         62.12336        67.26024        -0.99837
C         60.98649        67.91936        -0.42159
C         62.34255        70.05666        -0.25029
C         61.03427        69.32327        -0.10745
C         62.14556        71.52689        -0.51226
C         61.07927        72.20215         0.25571
C         62.18815        74.38073        -0.11653
C         61.07648        73.64411         0.31182
C         63.06180        63.82776        -2.24801
C         64.32977        65.93640        -2.23083
C         63.16284        65.20163        -1.92518
C         64.42229        67.32187        -1.95512
C         63.31561        67.99131        -1.32489
C         64.51148        70.12206        -1.50460
C         63.38775        69.39936        -1.11705
C         64.49656        71.62917        -1.64229
C         63.28619        72.32285        -1.02576
C         64.52709        74.50482        -1.25900
C         63.49820        73.70832        -0.42352
C         65.59674        68.05079        -2.25788
C         66.89062        70.15482        -2.18071
C         65.68457        69.44190        -2.00776
C         67.06872        71.49334        -1.61818
C         65.80077        72.28016        -1.24388
C         67.06275        74.37484        -1.36178
C         65.85102        73.75242        -1.26171
C         68.26910        72.29473        -1.87087
C         68.26699        73.63971        -1.65815
O         52.48946        54.33772         1.81154
O         49.78348        58.17201         3.28956
O         44.16844        56.09883        -0.74546
O         33.47912        67.93885         1.98138
O         57.37934        65.54835        -1.36709
O         33.32779        65.37152         2.42081
O         41.83312        67.52565         2.84988
O         37.38709        60.94267        -0.04874
O         62.13130        72.06657        -1.89029
O         52.15921        59.20265        -0.73478
O         29.48632        67.75290         1.22448
O         49.71694        49.97916         1.82024
O         49.66012        62.94580         3.82472
O         38.37464        58.76199         3.02576
O         57.45237        68.14931        -0.66874
O         40.90117        42.57409        -1.42800
O         59.44222        63.12036         0.64508
O         42.26621        50.55131        -1.17429
O         66.54686        71.60585        -0.21984
O         56.44155        58.37638        -3.03474
O         51.83481        67.32054         0.43918
H         51.15831        67.77541        -0.10534
O         45.26932        65.74831         3.69363
H         44.70233        66.53488         3.89326
O         48.44501        69.44452         3.18836
H         49.10798        69.18036         3.86047
O         44.81419        39.81473        -2.46989
H         45.41230        40.45060        -2.91781
O         53.06338        45.49225         0.52915
H         53.12197        46.38645         0.93131
O         28.61701        73.30679        -4.39333
H         28.53187        72.33135        -4.36125
O         37.44025        52.92497        -1.46253
H         38.33852        53.03453        -1.86075
O         49.47683        46.03965        -2.25221
H         49.98254        45.50196        -2.89755
O         49.09917        43.04506         0.97527
H         49.28127        43.87775         1.47697
O         52.37439        58.66756         2.88779
H         51.76139        58.54044         3.64668
O         38.91365        55.43535        -1.09657
H         39.32876        54.69411        -1.59890
O         28.08152        58.77769         1.07055
H         28.28755        59.09246         1.97447
O         64.16402        73.48601         0.85796
H         63.59210        72.91272         1.41187
O         40.91291        66.73040        -0.59496
H         40.20882        66.23424        -1.06272
O         51.56543        64.75218         4.32530
H         50.80791        64.18846         4.62418
O         62.92955        70.05314         1.10372
H         63.07386        69.11797         1.36301
O         48.43512        69.34868        -0.46321
H         48.14612        70.05103        -1.08308
O         34.35911        54.59108         2.85236
H         33.76781        55.13286         3.41363
O         54.09538        69.28731         4.06698
H         53.44068        68.63996         4.43926
O         44.87682        36.70193        -2.09330
H         44.74063        37.54017        -2.59061
O         53.62300        57.38519        -2.33752
H         52.87347        57.99298        -2.12225
O         40.84510        41.75654         2.14540
H         40.23927        41.31623         2.77844
O         45.46083        36.22812         1.48888
H         45.55925        35.42864         2.04682
O         27.12748        74.07736        -1.12636
H         26.23828        73.90475        -0.75034
O         39.03454        73.74947         1.27471
H         39.78240        73.41978         1.81850
O         57.10266        67.24581         2.80231
H         56.67002        67.65891         3.57913
O         64.39394        71.89127        -3.08386
H         63.46841        71.66011        -3.33518
O         55.63854        62.33853         2.34342
H         55.75303        63.15840         2.87006
O         59.36946        68.71194         2.37927
H         59.52808        69.49951         2.94049
O         55.69918        71.52447         3.71590
H         55.15151        70.90839         4.25934
O         43.62374        50.47725         2.21006
H         44.43824        50.72926         2.69587
O         34.93376        54.53705        -0.75732
H         35.66371        54.13276        -1.28206
O         42.80281        70.16413         2.83897
H         42.52981        69.30820         3.26011
O         46.72937        67.14049        -0.34883
H         47.49788        67.65413        -0.69560
O         43.81865        68.57011        -0.33037
H         43.97819        69.32093        -0.94691
O         23.83664        66.83425        -2.94084
H         24.39470        66.77932        -3.74316
O         36.61947        56.01170         3.04807
H         36.92209        56.84098         3.47872
O         55.70378        71.97802         0.08519
H         56.36026        72.34415        -0.54359
O         64.06775        74.66259        -2.60323
H         64.10926        73.77693        -3.04152
O         37.41504        50.01888        -1.50355
H         37.33767        50.97486        -1.74895
O         48.93854        60.38581         4.28097
H         49.42833        59.58003         4.56346
O         42.57824        54.25964        -1.47714
H         42.93281        55.12725        -1.78950
O         29.19979        72.69984         0.01493
H         28.44790        73.33085        -0.12459
O         55.20083        61.52051        -2.00439
H         54.36738        61.04922        -2.21811
O         56.32527        52.25545         0.24519
H         57.19001        51.81422         0.37752
O         54.41969        52.93028        -2.80039
H         53.66176        53.52197        -2.98982
O         48.64738        42.63196        -2.63508
H         48.63743        41.84230        -3.21533
O         44.35343        68.23653         3.30573
H         45.17839        68.76909         3.33306
O         46.75907        55.35360        -1.01548
H         45.92696        55.79490        -1.31755
O         40.29430        52.91412        -1.50445
H         41.19286        53.26161        -1.75920
O         38.44764        70.75622        -2.01955
H         37.67398        70.26080        -2.36377
O         36.39530        63.59291         3.16703
H         35.61373        64.16101         3.34535
O         52.43528        67.22775         4.03926
H         52.11464        66.38533         4.45877
O         44.45387        72.27849         2.35633
H         43.91049        71.63088         2.86830
O         49.33491        45.81907         1.40340
H         48.83998        46.34686         2.06562
O         41.17627        52.04379         1.99183
H         41.91363        51.51549         2.38435
O         45.21128        71.01892        -1.00989
H         45.96960        70.51588        -1.37490
O         42.54895        44.44515        -2.24762
H         42.05522        43.66063        -2.58466
H         23.90913        74.78168        -4.63299
H         26.08186        74.99974        -3.52607
H         28.61340        74.92223        -3.11281
H         31.06266        74.72293        -2.98490
H         33.38778        74.87475        -2.26935
H         35.79675        74.93005        -1.78136
H         38.21500        74.98777        -1.23498
H         40.68957        75.02615        -0.80396
H         43.15223        74.99057        -0.65120
H         45.59389        75.06660        -0.10547
H         47.92470        75.11907         0.76548
H         50.27036        75.14986         1.43458
H         52.67034        75.19952         1.88585
H         55.12576        75.25368         2.20715
H         57.60355        75.29456         1.75773
H         59.86693        75.37515         0.87895
H         62.16120        75.47887        -0.05090
H         64.66684        75.52510        -0.82347
H         67.11764        75.47312        -1.33558
H         22.77152        69.05360        -3.36924
H         21.79030        71.01253        -4.52418
H         21.91868        73.40705        -5.21222
H         24.87663        65.02701        -1.52404
H         23.84775        67.67546        -1.06987
H         27.14295        60.85725        -0.32678
H         26.01306        62.95162        -0.89282
H         29.46795        56.58675         0.57709
H         28.85112        58.84596        -0.83033
H         31.83153        52.25045         1.01298
H         30.62116        54.44841         0.85086
H         34.37680        47.97806         1.06833
H         33.12514        50.09841         1.26918
H         36.83467        43.73003         0.87214
H         35.60271        45.86542         0.96719
H         39.42844        39.41560         0.96915
H         38.11029        41.61848         0.93642
H         41.80597        35.14833         0.33425
H         40.61282        37.28895         0.65423
H         45.22311        31.80979        -0.00327
H         43.07352        33.00913         0.25043
H         47.33927        33.01967        -0.44460
H         48.57548        35.16095        -0.73180
H         49.79885        37.30149        -0.87814
H         51.01439        39.42595        -1.10242
H         52.23141        41.58825        -1.32086
H         53.36753        43.75388        -1.71055
H         54.51656        46.05803        -2.00886
H         55.62522        48.23121        -2.18943
H         56.87180        50.37509        -2.07084
H         58.06750        52.63923        -2.13887
H         59.08186        54.79838        -2.61558
H         60.16987        57.01359        -2.88547
H         61.34542        59.11974        -2.91449
H         62.62601        61.20835        -2.76304
H         63.90528        63.32804        -2.74574
H         65.17718        65.42560        -2.71117
H         66.47066        67.51803        -2.66148
H         67.74870        69.66179        -2.66240
H         69.16728        71.79191        -2.25918
H         69.18956        74.21447        -1.82401
