         404
 CSIRO Nanostructure Databank - Neutral Graphene Oxide Data Set
C          1.33346         3.35886        -1.11262
C          0.13488         4.06294        -1.15755
C          1.31612         6.19799        -0.98997
C          0.11738         5.46010        -1.09528
C          1.33154         7.63914        -0.86895
C          0.10569         8.41263        -0.96799
C          1.23290        10.35279         0.09855
C          0.05588         9.70669        -0.59540
C          1.20705        11.89245         0.06253
C          0.05190        12.64020        -0.46567
C          1.28976        14.76976        -0.40606
C          0.08446        13.99118        -0.58874
C          1.27782        16.20400        -0.47267
C          0.04900        16.93326        -0.50131
C          1.22815        19.06703        -0.38459
C          0.02371        18.30383        -0.44273
C          1.22291        20.48857        -0.21182
C          0.01035        21.20200         0.06879
C          1.22339        23.31691         0.29697
C          0.01783        22.53927         0.34904
C          1.21171        24.68824         0.60161
C          0.12285        25.35834         1.26533
C          1.20872        27.58889         1.14176
C          0.18229        26.66128         1.66885
C          1.52064        28.89157         1.79349
C          0.72633        29.30683         2.84589
C          2.24439        31.12300         3.30776
C          1.12766        30.38975         3.65466
C          2.45770        33.33335         3.90371
C          1.46983        34.02227         4.62302
C          2.15022        36.06696         3.52960
C          1.27250        35.37729         4.38964
C          2.05667        37.49400         3.38955
C          3.80201         3.35438        -0.94715
C          2.56481         4.05170        -1.01370
C          3.78605         6.19246        -0.87952
C          2.55219         5.48265        -0.95475
C          3.78315         7.61569        -0.74920
C          2.53902         8.32936        -0.68263
C          3.73768        10.46119        -0.37828
C          2.55254         9.75942        -0.39748
C          3.82657        11.87982         0.19315
C          2.51204        12.65709         0.12965
C          3.73994        14.80505        -0.31606
C          2.51618        14.09370        -0.24156
C          3.74644        16.21914        -0.43525
C          2.50184        16.93006        -0.44675
C          3.68131        19.11444        -0.42735
C          2.47323        18.37145        -0.44164
C          3.68157        20.52838        -0.44030
C          2.44047        21.21977        -0.27123
C          3.65302        23.35238        -0.28835
C          2.44900        22.64572        -0.09479
C          3.71455        24.79435        -0.02911
C          2.44842        25.47225         0.44139
C          3.52040        27.74555        -0.01318
C          2.30541        26.95121         0.33970
C          3.64682        29.10023         0.53580
C          2.72006        29.63941         1.43967
C          4.03570        31.80284         1.67671
C          3.00230        30.91032         2.10837
C          4.21457        33.18425         2.08275
C          3.26875        33.92879         2.92125
C          4.18307        36.09483         2.14739
C          3.17948        35.35605         2.83808
C          4.12271        37.52436         2.10244
C          2.99906        38.19679         2.69656
C          6.26778         3.35500        -0.76077
C          5.02146         4.03922        -0.89369
C          6.24106         6.19708        -0.97434
C          5.01830         5.48220        -0.91160
C          6.21815         7.60985        -0.92717
C          5.00909         8.31854        -0.72351
C          6.19263        10.47386        -0.68844
C          5.00536         9.77306        -0.61338
C          6.18121        11.94411        -0.78392
C          4.98692        12.69110        -0.34767
C          6.26617        14.83382        -0.36445
C          4.98647        14.06577        -0.35296
C          6.24456        16.30922        -0.52334
C          4.99253        16.94128        -0.47342
C          6.25211        19.17682        -0.57841
C          4.95306        18.39418        -0.32030
C          6.13878        20.61307        -0.85745
C          4.90325        21.27315        -0.64216
C          6.05595        23.45323        -0.93310
C          4.86416        22.70004        -0.66433
C          6.02814        24.91183        -0.93268
C          4.84897        25.56530        -0.56607
C          6.00231        27.81228        -0.67150
C          4.75636        27.03698        -0.54667
C          5.98131        29.19913        -0.46854
C          4.77655        29.89373         0.05098
C          6.25071        31.97844         0.41934
C          4.93187        31.32879         0.58807
C          6.37507        33.28772         0.85646
C          5.28188        33.94560         1.51699
C          6.32192        36.16118         0.99218
C          5.29053        35.39996         1.58422
C          6.30096        37.58723         0.99653
C          5.17735        38.25185         1.53601
C          8.70339         3.36495        -0.42745
C          7.48626         4.03814        -0.73784
C          8.71203         6.14828        -1.08461
C          7.50527         5.48147        -0.96364
C          8.76744         7.59990        -1.32343
C          7.45855         8.36216        -1.17288
C          8.72922        10.54238        -1.07415
C          7.52319         9.76257        -0.60401
C          8.74234        11.90947        -1.09400
C          7.46902        12.66699        -1.00102
C          8.77548        14.82574        -0.96154
C          7.54750        14.10131        -0.59920
C          8.81191        16.33167        -0.74409
C          7.45569        17.02834        -0.77981
C          8.56344        19.19027        -1.47398
C          7.44298        18.42489        -0.98931
C          8.52136        20.59632        -1.47712
C          7.31231        21.32926        -1.17773
C          8.48243        23.53089        -1.33382
C          7.26779        22.76919        -1.19674
C          8.44738        24.96453        -1.44585
C          7.21467        25.67325        -1.29825
C          8.04917        27.99335        -1.88582
C          7.12490        27.13186        -1.26524
C          8.15305        29.37618        -1.56719
C          7.14555        29.98220        -0.75245
C          8.51703        32.04186        -0.63046
C          7.29852        31.33303        -0.33264
C          8.66687        33.40269        -0.27007
C          7.67050        34.03828         0.66600
C          8.60707        36.27142        -0.18109
C          7.42036        35.47751         0.29724
C          8.63241        37.70207         0.15962
C          7.46264        38.32607         0.60345
C         11.10089         3.45871         0.15581
C          9.92834         4.04028        -0.36983
C         11.23791         6.24559        -0.61635
C          9.98207         5.43103        -0.87512
C         11.16578         7.72763        -0.65680
C         10.01701         8.35212        -1.07335
C         11.22606        10.57012        -0.98350
C         10.00543         9.81530        -1.44378
C         11.20624        11.99640        -1.07611
C          9.97056        12.66632        -1.22172
C         11.20487        14.83092        -1.43767
C          9.91637        14.11305        -1.25106
C         11.17007        16.30757        -1.64755
C          9.76327        16.93325        -1.78209
C         11.13709        19.19183        -1.74478
C          9.81310        18.45761        -1.80961
C         11.11126        20.69014        -1.66142
C          9.74673        21.39773        -1.67774
C         10.95218        23.50509        -1.16640
C          9.71878        22.83319        -1.34908
C         10.94661        24.92762        -1.16460
C          9.74229        25.61591        -1.55389
C         11.09630        27.66619        -1.81553
C          9.92620        26.90038        -2.07174
C         11.16984        29.04404        -2.11377
C          9.27767        30.15461        -1.94791
C         10.87668        32.03498        -1.47759
C          9.57093        31.40135        -1.37298
C         10.94750        33.42975        -1.18587
C          9.80292        34.13875        -0.68307
C         11.03570        36.31505        -0.73070
C          9.87409        35.57520        -0.49916
C         11.08653        37.71559        -0.24912
C          9.88449        38.34441         0.15896
C         13.34777         3.60494         1.14514
C         12.25568         4.21400         0.47790
C         13.33528         6.43504         0.66665
C         12.31136         5.63203         0.18382
C         13.45312         7.83500         0.31335
C         12.37014         8.47677        -0.34425
C         13.64386        10.62847        -0.48403
C         12.37593         9.88672        -0.59237
C         13.61980        12.09735        -0.46283
C         12.42164        12.75101        -0.81373
C         13.54837        14.90773        -0.56712
C         12.41302        14.16415        -0.89959
C         13.43829        16.38243        -0.51106
C         12.32880        17.10252        -1.16232
C         13.55292        19.24269        -0.97425
C         12.34752        18.47899        -1.25279
C         13.52109        20.70116        -0.93737
C         12.27117        21.40298        -1.11738
C         13.35477        23.54852        -0.55393
C         12.19713        22.80343        -0.96530
C         13.32061        24.93447        -0.50651
C         12.14352        25.64381        -0.90988
C         13.32744        27.83670        -0.81879
C         12.18404        27.06073        -1.11302
C         13.37389        29.21339        -1.12582
C         12.20410        29.86295        -1.64500
C         13.34635        32.00616        -1.60703
C         12.10810        31.30896        -1.64536
C         13.34483        33.43089        -1.67436
C         12.17198        34.14469        -1.36871
C         13.35385        36.25599        -1.63461
C         12.20528        35.59578        -1.23021
C         13.52043        38.11036        -0.56075
C         12.28219        38.41323         0.06787
C         15.51662         3.78841         2.31513
C         14.40669         4.36476         1.67629
C         15.52917         6.65877         1.99114
C         14.31830         5.83720         1.58608
C         15.68252         8.01369         1.42683
C         14.64577         8.56246         0.66128
C         15.94233        10.75592         0.64022
C         14.83982         9.92360         0.13185
C         15.96216        12.15032         0.38013
C         14.78704        12.83070        -0.12195
C         15.95849        15.00979         0.09422
C         14.75213        14.25828        -0.16741
C         15.98678        16.43143        -0.05450
C         14.71731        17.16630        -0.23069
C         16.02412        19.24158        -0.69339
C         14.73297        18.56901        -0.65005
C         15.98504        20.81749        -0.69036
C         14.66954        21.42659        -0.61304
C         15.84744        23.60735        -0.07468
C         14.55829        22.80733        -0.01878
C         15.80301        25.00580         0.05529
C         14.49004        25.69693        -0.00861
C         15.74075        27.95315        -0.08604
C         14.47952        27.21178        -0.15067
C         15.80261        29.31645        -0.45631
C         14.58963        29.96576        -0.96908
C         15.82811        32.09412        -1.26969
C         14.58194        31.30043        -1.36702
C         15.87901        33.37237        -2.04421
C         14.59186        34.13342        -2.03135
C         15.95096        36.26306        -1.53100
C         14.65761        35.63098        -1.91329
C         15.96899        37.46426        -0.72900
C         14.82037        38.11536        -0.10101
C         17.81660         3.89711         3.23714
C         16.66013         4.54418         2.69132
C         17.91655         6.67227         2.65446
C         16.72637         5.94240         2.44385
C         17.98736         8.07900         2.34174
C         16.89319         8.73175         1.68779
C         18.17777        10.86675         1.66452
C         17.00225        10.11721         1.32634
C         18.27175        12.24596         1.29535
C         17.13716        12.90734         0.68299
C         18.41249        15.04920         0.49849
C         17.14713        14.30441         0.42858
C         18.39961        16.51774         0.45836
C         17.18306        17.18043         0.09605
C         18.37882        19.35254         0.11712
C         17.21221        18.59685        -0.12673
C         18.37746        20.80060         0.00459
C         17.18118        21.51566        -0.22898
C         18.29612        23.69969         0.12132
C         17.10775        22.94991        -0.05087
C         18.23923        25.09835         0.33094
C         16.98244        25.75568         0.26997
C         18.20245        27.99562         0.62047
C         16.91071        27.22806         0.45248
C         18.19441        29.47137         0.31925
C         16.99733        30.05945        -0.29846
C         18.38971        32.09510        -0.96944
C         17.06509        31.48462        -0.67678
C         18.46083        33.21243        -2.00731
C         17.18474        34.10306        -2.16672
C         18.41082        36.16903        -1.45119
C         17.17467        35.56645        -1.79833
C         18.43157        37.39382        -0.71420
C         17.20944        37.98019        -0.33035
C         18.96231         4.60520         3.50029
C         20.21723         6.74926         3.48823
C         19.04783         6.00308         3.21449
C         20.27042         8.10650         3.22150
C         19.17522         8.79974         2.64443
C         20.38238        10.98681         2.69465
C         19.25456        10.21994         2.34135
C         20.47310        12.32910         2.34743
C         19.45242        12.96636         1.62457
C         20.64704        15.24676         1.70190
C         19.63546        14.35232         1.13627
C         20.65271        16.57874         1.42148
C         19.55754        17.24721         0.75945
C         20.72279        19.44667         0.80656
C         19.56949        18.68676         0.57549
C         20.73549        20.83678         0.61468
C         19.58897        21.52927         0.24511
C         20.77482        23.77204         0.44611
C         19.61916        23.00261        -0.12603
C         20.70183        25.09596         0.67956
C         19.47200        25.85724         0.52756
C         20.70072        28.01722         0.46455
C         19.47720        27.24819         0.55150
C         20.73826        29.36038         0.28430
C         19.51968        30.19986         0.18758
C         20.84134        32.05590        -0.95705
C         19.55470        31.47405        -0.59644
C         20.94914        33.25285        -1.58292
C         19.74939        34.01384        -1.95131
C         20.93690        36.23087        -1.35150
C         19.71384        35.55496        -1.77129
C         20.88917        37.40716        -0.63183
C         19.65792        37.99159        -0.30834
O          8.90866        27.46230        -2.85856
O         16.18308        32.38146         0.14221
O          8.01566         8.11896        -2.49426
O         13.32253        37.61599        -1.87507
O         11.46571        15.41608        -2.77363
O         19.48527        14.46025        -0.31246
O          2.70762        32.01174         4.28419
O         16.24110        20.02448        -1.89629
O          4.32275        31.05964        -0.71892
O         10.99340         5.62516        -1.92564
O          3.74448        27.62102        -1.46426
O         14.69372        10.04149        -1.32899
O         17.37624        27.66769         1.78598
O         14.52780        34.97512        -3.22824
O          6.60029        12.42565        -2.15650
O         10.55696        18.79248        -3.02835
O          3.49050        25.12372         1.42809
O          1.15747        27.51494        -0.34333
O         14.15897        26.53518         1.14301
O         10.16411        29.62981        -2.89965
O          7.52958        35.84001        -1.10412
O          7.12589        14.39562         0.78443
O          5.80165        18.85815         0.78330
O         16.49946        33.55497        -3.34268
O         14.37214         6.51578         2.89267
O         18.74703        30.28913         1.42638
O         13.73726        16.89552         0.83560
O         10.54834        21.23640        -2.89624
O          1.69518        12.44976         1.34254
O         19.84638        34.89569        -3.09138
O          1.11422         9.95124         1.49300
H          1.45135        10.70092         2.03632
O         18.60478        32.44869        -3.23853
H         18.67525        33.09683        -3.97379
O          4.16625        11.68927         1.60180
H          3.34535        11.86162         2.11956
O          7.76610         9.53677         0.83581
H          7.53357        10.35805         1.31993
O         10.07036         9.85760        -2.91080
H          9.30865         9.32031        -3.23835
O          8.31712        34.10152         1.98483
H          8.45615        33.18273         2.29705
O         19.80519        23.02587        -1.58810
H         19.10147        22.46593        -1.98116
O         14.29839        22.59717         1.41902
H         14.21269        23.48249         1.83471
O          9.20005        16.53626        -3.04316
H          9.78562        16.89208        -3.74746
O          9.37390        16.56429         0.57236
H          8.76622        16.15265         1.22617
H          1.33346         2.26032        -1.15506
H         -0.81538         3.51613        -1.23495
H         -0.85150         5.97664        -1.11615
H         -0.79735         7.93383        -1.37264
H         -0.90524        10.23604        -0.64218
H         -0.86988        12.10724        -0.73205
H         -0.82571        14.50269        -0.93071
H         -0.90490        16.39070        -0.53301
H         -0.94880        18.81340        -0.44262
H         -0.94349        20.65974         0.10717
H         -0.92970        23.03814         0.59284
H         -0.73993        24.75634         1.58497
H         -0.63515        27.05623         2.28840
H         -0.17782        28.74997         3.12193
H          0.59433        30.61711         4.58581
H          0.87027        33.48125         5.36626
H          0.48741        35.92878         4.92559
H          1.22232        38.01387         3.88248
H          3.79590         2.25414        -0.94267
H          2.93623        39.29153         2.61702
H          6.26119         2.26135        -0.63934
H          5.14698        39.35122         1.54199
H          8.66016         2.30299        -0.14098
H          7.47535        39.41064         0.79003
H         11.07356         2.39908         0.45268
H          9.94082        39.38341         0.51745
H         13.35054         2.51267         1.27816
H         12.22446        39.22791         0.80561
H         15.54346         2.69643         2.44949
H         15.02949        38.62952         0.84897
H         17.77135         2.81809         3.44396
H         17.23405        38.87747         0.30441
H         19.83925         4.10001         3.93062
H         21.09019         6.24175         3.92331
H         21.19882         8.64543         3.45184
H         21.22136        10.53088         3.23558
H         21.38431        12.88144         2.61342
H         21.41513        14.83804         2.37333
H         21.46680        17.18929         1.83523
H         21.65691        18.96008         1.11538
H         21.68390        21.36721         0.77112
H         21.73878        23.26319         0.58422
H         21.59728        25.61790         1.04579
H         21.65731        27.47721         0.49451
H         21.72151        29.84145         0.18831
H         21.76075        31.52063        -0.68759
H         21.93860        33.67310        -1.80978
H         21.90128        35.80581        -1.65832
H         21.82306        37.89961        -0.32752
H         19.62561        38.93157         0.25917
