         275
 CSIRO Nanostructure Databank - Neutral Graphene Oxide Data Set
C        -11.29942         0.65538         0.22359
C        -10.08090         1.44022         0.30918
C         -8.84383         0.74200         0.83638
C         -7.53684         1.41677         0.42468
C         -6.37679         0.77117         0.70075
C         -5.09427         1.50734         0.82696
C         -3.80914         0.74757         0.96960
C         -2.58228         1.44185         0.47621
C         -1.30892         0.64829         0.32987
C         -0.03640         1.43786         0.20489
C          1.26281         0.62402         0.12854
C          2.51007         1.43486         0.68660
C          3.80478         0.73863         0.24958
C          5.09979         1.50174         0.26146
C          6.31877         0.73267         0.11685
C          7.45133         1.28334        -0.49228
C          8.75392         0.64017        -0.34508
C         10.00261         1.44184         0.05640
C         11.22304         0.73014        -0.48948
C        -10.07737         2.76507        -0.01082
C         -8.84020         3.54734        -0.23906
C         -7.52656         2.83023        -0.05865
C         -6.27311         3.65179         0.12384
C         -5.04273         2.97204         0.56962
C         -3.88073         3.66554         0.73415
C         -2.59897         2.93837         0.53784
C         -1.30684         3.66253         0.73104
C         -0.04698         2.93167         0.34228
C          1.25187         3.64759         0.58289
C          2.49689         2.87984         0.23260
C          3.79943         3.60074         0.14923
C          5.08476         2.88503         0.41604
C          6.29267         3.73577         0.71171
C          7.67660         3.17354         1.04099
C          8.84161         3.71945         0.25093
C          9.87334         2.93731        -0.19345
C         -8.81893         5.04956        -0.28993
C         -7.54703         5.83101        -0.13047
C         -6.29081         5.13768         0.18069
C         -5.16118         5.83823         0.51070
C         -3.88350         5.16401         1.00360
C         -2.62428         5.87255         0.35041
C         -1.31469         5.15384         0.68147
C         -0.03669         5.84042         0.19241
C          1.24567         5.13885         0.65190
C          2.57305         5.90391         0.58117
C          3.76344         5.10345         0.03261
C          5.03599         5.85792        -0.08373
C          6.31171         5.19135         0.33556
C          7.58938         5.86456        -0.04246
C          8.74438         5.14475        -0.10077
C         -7.55968         7.17665        -0.29075
C         -6.36543         8.07198        -0.04866
C         -5.16049         7.32727         0.55108
C         -3.85730         8.09268         0.63394
C         -2.52219         7.33572         0.84914
C         -1.26396         8.01219         0.29425
C         -0.07164         7.35076         0.34162
C          1.23953         8.11692         0.38826
C          2.44829         7.28998        -0.04099
C          3.72337         8.02675        -0.24732
C          5.05996         7.36895         0.08053
C          6.18455         7.89581        -0.84465
C          7.56992         7.37245        -0.35646
C         -5.89097         8.81917        -1.28477
C         -4.71714         9.46484        -1.26716
C         -3.86368         9.51031         0.00774
C         -2.50152        10.06677        -0.29646
C         -1.29402         9.41652        -0.12422
C         -0.07328        10.05380        -0.51485
C          1.19649         9.45949        -0.31601
C          2.39118        10.10692        -0.59673
C          3.70954         9.54228        -0.11376
C          4.96954        10.12188        -0.72472
C          6.08604         9.41112        -0.95733
C        -11.29241        -0.70415         0.21387
C        -10.07048        -1.48488         0.33304
C         -8.82179        -0.76442         0.56350
C         -7.63399        -1.42437         0.67066
C         -6.39373        -0.68576         1.15438
C         -5.09342        -1.39382         0.75297
C         -3.79470        -0.74879         1.15297
C         -2.52074        -1.51857         1.04878
C         -1.28675        -0.82823         0.56322
C         -0.01561        -1.57771         0.71964
C          1.22340        -0.76410         0.78980
C          2.54539        -1.46989         0.86047
C          3.79686        -0.75838         0.37058
C          5.10510        -1.48890         0.61157
C          6.27824        -0.78255        -0.09686
C          7.61139        -1.50539         0.20208
C          8.82394        -0.72379        -0.21245
C         10.08873        -1.44776        -0.20187
C         11.27593        -0.62121        -0.46678
C        -10.08878        -2.85658         0.20048
C         -8.87113        -3.66794         0.35981
C         -7.59596        -2.90690         0.59199
C         -6.36001        -3.50977        -0.00123
C         -5.05853        -2.80385         0.26517
C         -3.85489        -3.66532         0.55159
C         -2.53703        -3.02061         0.88589
C         -1.25725        -3.73096         0.61268
C         -0.02900        -2.96192         0.70552
C          1.23838        -3.73028         0.77276
C          2.54154        -2.97246         0.88899
C          3.75542        -3.67129         0.35222
C          5.01804        -2.92479         0.09274
C          6.30407        -3.66518        -0.20262
C          7.59952        -2.93678        -0.32392
C          8.91588        -3.72910        -0.35329
C         10.11834        -2.81968        -0.11600
C         -8.77594        -5.07357        -0.13887
C         -7.61122        -5.70711        -0.43504
C         -6.35351        -4.90058        -0.55555
C         -4.96600        -5.51685        -0.88014
C         -3.85066        -5.09062         0.07847
C         -2.53129        -5.80732         0.00897
C         -1.23902        -5.09377         0.26936
C         -0.01037        -5.82022         0.04231
C          1.25529        -5.16632         0.35288
C          2.46921        -5.83455         0.38666
C          3.79394        -5.14735         0.68144
C          5.00178        -5.87986         0.09489
C          6.28929        -5.16000        -0.15537
C          7.57119        -5.89195         0.09764
C          8.79664        -5.03887         0.50596
C         -7.63065        -7.20393        -0.73600
C         -6.29749        -7.81096        -1.14646
C         -5.02496        -7.03113        -1.09478
C         -3.77029        -7.86765        -0.80812
C         -2.48657        -7.02602        -0.90583
C         -1.25395        -7.86407        -0.66043
C         -0.05764        -7.19783        -0.38927
C          1.08436        -7.95733        -1.04947
C          2.59882        -7.29916         0.64975
C          3.77077        -8.01997        -0.02375
C          5.10589        -7.36572         0.42345
C          6.31853        -8.02591        -0.30047
C          7.57024        -7.24997         0.11586
C         -6.14351        -9.30005        -1.12766
C         -4.98200        -9.90270        -1.44341
C         -3.71003        -9.11109        -1.72057
C         -2.43425        -9.87106        -1.43486
C         -1.28199        -9.27586        -0.99665
C         -0.05254       -10.16729        -0.77734
C          1.27618        -9.40890        -0.65996
C          2.39472       -10.08700        -0.29268
C          3.70393        -9.51562         0.27439
C          5.03721       -10.17974        -0.05058
C          6.21815        -9.52877        -0.08207
O         -4.71353         7.94334         1.80277
O         -1.25427         4.46268         1.94495
O          3.67885        -0.13514        -0.92481
O          1.23583         4.33875         1.86895
O         -3.38539        -3.60856         1.92318
O         -5.70690        -7.26852        -2.38275
O          5.39921        -5.60238        -1.26447
O          1.46510         8.44493         1.80046
H          1.77205         7.61780         2.25498
O         -3.81097         5.29323         2.39294
O         -2.73567         2.23036        -0.75368
O          6.82756        -3.20090        -1.51001
O          6.12351         4.78046         1.74418
O         -1.45034        -0.29603        -0.79633
O          1.95118        -3.54913         2.07629
O         -8.86763         0.78467         2.25568
O          1.91495        -7.78815         1.53981
O          6.00376         7.35764        -2.16856
H          5.04199         7.29726        -2.36279
O          2.92354         6.19567         1.96692
H          2.67946         5.40284         2.50493
O          7.80990         2.43532         2.00902
O         -4.92428        -1.69235        -0.67663
O         -0.11807         2.33397        -0.97243
O          2.95702         7.51527        -1.38062
O         -2.25732         7.29397         2.25137
H         -2.93467         6.67733         2.66522
O         -6.63994         3.06576        -1.19314
O          5.24139        -1.52597         2.04119
H          6.19595        -1.66528         2.26876
O         -4.42964         1.32215         2.15226
O          5.38024         7.67950         1.45070
H          4.97521         8.55905         1.67116
O         -3.05211        -1.11445         2.34832
O          9.13665        -4.21167        -1.70474
H          8.32068        -3.99463        -2.22132
O          1.48371        -7.48826        -2.09867
O          1.93844        -0.91641         2.06443
O          4.05187        -3.18395        -0.98076
O         -8.22256        -3.58999         1.71060
O         -3.44823        -5.98855         1.14596
O         -8.91675         4.29200        -1.51508
O          4.33734         5.44652        -1.28018
O          6.27311        -7.94308        -1.75260
H          6.23352        -6.98443        -1.99910
O         -3.64946        -8.74106        -3.12043
H         -4.50879        -8.29350        -3.32681
O          3.57479        -9.69304         1.70742
H          3.68795       -10.64403         1.91156
O          3.07226         3.07805        -1.06790
O         -6.57674        -3.74366        -1.43230
O         -4.52672        -4.94130        -2.12225
H         -5.19616        -5.15090        -2.80835
O         -6.81187         9.07386         0.91046
H         -6.69129         8.68739         1.80675
O          1.40284         0.32942        -1.26264
H          1.09911         1.11193        -1.77727
O          7.37532         2.37209        -1.29763
H          6.43320         2.57075        -1.49398
O         -3.88345        -8.44066         0.50809
H         -3.84196        -7.71383         1.17595
O          3.76433         9.85623         1.31954
H          2.91312         9.52389         1.72108
O          9.98879        -5.78986         0.34515
H         10.19142        -5.78812        -0.61613
O         -2.78738         5.89143        -1.08028
H         -3.00339         4.98472        -1.39262
O         -6.47802        -0.69553         2.59018
H         -7.30055        -0.18281         2.81915
O          3.69339        -7.81864        -1.43284
H          4.54873        -8.10477        -1.84412
O         -4.47576        10.45690         0.89901
H         -5.41547        10.16223         1.03113
O          6.10256        -0.90623        -1.51909
H          5.17347        -0.65318        -1.74308
O         10.12346         1.24321         1.49659
H          9.38253         1.72679         1.94721
O          7.81686        -1.65159         1.64690
H          8.31227        -0.86762         1.97368
O          7.97582         8.07684         0.81586
H          7.26472         7.94732         1.48923
O         -0.00777         5.64845        -1.25286
H         -0.87887         5.94153        -1.61404
O          3.99892        -5.23284         2.12188
H          3.23074        -4.77655         2.55408
O          0.02800       -11.14659        -1.81451
H          0.26534       -10.69464        -2.65037
O         -2.33907        -6.53190        -2.25254
H         -2.57625        -7.26911        -2.87255
O          2.46131         1.56386         2.11254
H          2.48273         0.66964         2.53467
O          5.35205        -7.55786         1.81516
H          4.67210        -7.06585         2.33057
O         -8.04988        -7.91666         0.43200
H         -8.80876        -7.44888         0.83700
H         12.20319        -1.14065        -0.75364
H         12.11566         1.31682        -0.75489
H         10.66435         3.42432        -0.78972
H          9.66902         5.63815        -0.44088
H          8.32911         7.58251        -1.15211
H          6.96859         9.93167        -1.36223
H          4.97986        11.21095        -0.89173
H          2.36875        11.12326        -1.02242
H         -0.12762        11.05734        -0.96578
H         -2.48695        11.11106        -0.64844
H         -4.38252        10.03613        -2.14681
H         -6.52696         8.83380        -2.18283
H         -8.50761         7.68958        -0.51532
H         -9.74906         5.60834        -0.03588
H        -11.01749         3.24120        -0.33343
H        -12.24975         1.19442         0.08615
H        -12.23827        -1.25399         0.09796
H        -11.02788        -3.36308        -0.07141
H         -9.71453        -5.65431        -0.15574
H         -8.37823        -7.38673        -1.56633
H         -7.03735        -9.89849        -0.89800
H         -4.92959       -11.00220        -1.47130
H         -2.40681       -10.94588        -1.67751
H         -0.21697       -10.73314         0.17929
H          2.26471       -11.17193        -0.11670
H          5.04926       -11.28311        -0.01421
H          7.14581       -10.11608        -0.17976
H          8.50672        -7.78463         0.34151
H          8.69255        -4.77465         1.59286
H         11.09701        -3.32453        -0.15620
