         324
 CSIRO Nanostructure Databank - Neutral Graphene Oxide Data Set
C          1.67085         2.03035         2.09816
C          1.54375         3.38819         1.77015
C          2.88043         1.37779         1.93361
C          2.63451         4.12634         1.27321
C          1.31412         6.24434         1.02678
C          1.19820         7.62760         0.73913
C          2.49353         5.52131         0.88663
C          2.28250         8.39089         0.31669
C          1.17489        10.67829         0.24348
C          1.18341        12.07169         0.35920
C          2.26250         9.79059        -0.01580
C          2.30923        12.95820         0.26575
C          1.31754        14.88267         1.54815
C          1.44899        16.12675         2.14073
C          2.42519        14.23322         0.94301
C          2.70380        16.78345         2.19731
C          2.84564        18.08798         2.79320
C          4.01499         2.08326         1.44195
C          3.89786         3.47358         1.11801
C          5.24951         1.41932         1.26856
C          5.06917         4.18263         0.66727
C          3.67141         6.20171         0.31967
C          3.56552         7.68094         0.07403
C          5.01094         5.57132         0.38832
C          4.83707         8.46643         0.15863
C          3.48293        10.32642        -0.56928
C          3.46971        12.51446        -0.40659
C          4.74781         9.85405        -0.30763
C          4.75429        12.99678        -0.17738
C          3.70619        14.87986         0.99681
C          3.84251        16.14519         1.64711
C          4.87680        14.24054         0.47797
C          5.13651        16.77142         1.74246
C          4.05116        18.72410         2.83117
C          5.25391        18.10264         2.32061
C          6.38760         2.09791         0.78268
C          6.30573         3.50311         0.49798
C          7.61176         1.42196         0.57665
C          7.45131         4.19815        -0.00863
C          6.17964         6.28563         0.02415
C          6.16004         7.76697         0.03983
C          7.39792         5.62128        -0.21455
C          7.33925         8.53340        -0.43993
C          6.00004        10.65379        -0.30624
C          5.98955        12.15381        -0.29973
C          7.28170         9.92769        -0.56486
C          7.20941        12.91944        -0.74899
C          6.17212        14.86409         0.55130
C          6.25894        16.14066         1.19872
C          7.31227        14.23616        -0.00400
C          7.58098        16.77168         1.30271
C          6.45651        18.78856         2.32684
C          7.70357        18.16251         1.88585
C          8.73127         2.09844         0.05940
C          8.64437         3.48498        -0.25451
C          9.97182         1.40494        -0.11189
C          9.76363         4.14435        -1.01836
C          8.59638         6.35696        -0.62139
C          8.55690         7.82362        -0.69265
C          9.75943         5.65865        -0.91407
C          9.71919         8.56922        -0.96815
C          8.48473        10.69127        -0.75312
C          8.49376        12.11482        -0.71053
C          9.72381         9.99483        -0.92640
C          9.70850        12.82728        -0.76881
C          8.55710        14.91353        -0.11232
C          8.58549        16.34133         0.28281
C          9.69928        14.26463        -0.59211
C          9.80820        17.17107         0.08395
C          8.92144        18.94688         1.58975
C          9.98275        18.42038         0.88204
C         11.14946         2.08208        -0.42103
C         11.10945         3.51597        -0.72780
C         12.38063         1.38250        -0.48850
C         12.26162         4.21868        -0.87905
C         10.96472         6.36178        -1.40736
C         10.95794         7.87560        -1.36689
C         12.29826         5.60246        -1.49742
C         12.21958         8.64074        -1.30935
C         10.95007        10.73390        -1.06391
C         10.95401        12.13626        -0.94206
C         12.20951        10.01932        -1.20758
C         12.20730        12.88600        -1.00891
C         10.94344        15.01792        -0.84629
C         11.00728        16.50012        -0.51590
C         12.20699        14.26877        -0.96167
C         12.33252        17.13071        -0.30164
C         11.24399        19.08365         0.79635
C         12.38129        18.49449         0.22894
C         13.59863         2.05972        -0.66690
C         13.56557         3.54308        -0.65304
C         14.82790         1.40299        -0.73831
C         14.84702         4.28147        -0.89667
C         13.49970         6.41639        -1.00073
C         13.48368         7.90879        -1.11602
C         14.81576         5.73591        -1.17022
C         14.74827         8.63889        -1.29956
C         13.46435        10.76153        -1.20543
C         13.46324        12.15552        -1.13382
C         14.71570        10.03726        -1.31925
C         14.71619        12.89612        -1.05191
C         13.44460        15.07156        -1.31394
C         13.46304        16.48301        -0.71897
C         14.70550        14.28717        -1.00167
C         14.71245        17.26181        -0.83013
C         13.61557        19.20063         0.21844
C         14.78609        18.63125        -0.29305
C         16.06492         2.07768        -1.00094
C         16.08525         3.52633        -1.19473
C         17.24967         1.36342        -1.05826
C         17.23096         4.20608        -1.51734
C         15.97656         6.43019        -1.33249
C         15.99105         7.89380        -1.32733
C         17.24758         5.70215        -1.75356
C         17.20235         8.56485        -1.29691
C         15.95362        10.78405        -1.32388
C         15.96211        12.14253        -1.06836
C         17.21976        10.02330        -1.53914
C         17.29771        12.77835        -0.67183
C         15.94727        15.03539        -0.73323
C         16.02230        16.51026        -0.96296
C         17.26050        14.30549        -0.63340
C         17.27455        17.22250        -0.64422
C         16.04175        19.28901        -0.24851
C         17.25985        18.61530        -0.44810
C         18.49100         1.97934        -1.51528
C         18.48708         3.47818        -1.80736
C         19.76009         1.31221        -1.23731
C         19.82844         4.22933        -1.87118
C         18.49631         6.33543        -1.16340
C         18.45228         7.83196        -0.99403
C         19.80136         5.64457        -1.31284
C         19.75061         8.57650        -0.92162
C         18.51176        10.75575        -1.69220
C         18.43434        12.24548        -1.51412
C         19.79310        10.04362        -1.29110
C         19.39742        13.06274        -2.00634
C         18.45633        15.09535        -0.98768
C         18.50096        16.49769        -0.78957
C         19.52238        14.47318        -1.66475
C         19.74706        17.19673        -0.90370
C         18.56212        19.38426        -0.29714
C         19.80434        18.61097        -0.70008
C         20.97214         2.02145        -1.14996
C         20.99290         3.43345        -1.31105
C         22.16625         1.31137        -0.77252
C         22.25338         4.15913        -1.16568
C         20.98774         6.32456        -1.05898
C         21.01173         7.78118        -0.93555
C         22.24822         5.60862        -0.93305
C         22.21745         8.44580        -0.91006
C         21.14062        10.63673        -1.50343
C         21.36915        11.90989        -2.00538
C         22.27881         9.89669        -0.98285
C         22.48721        12.69977        -1.56674
C         20.69951        15.21077        -1.87587
C         20.92018        16.48927        -1.31076
C         22.59300        14.07856        -1.74054
C         22.23025        17.10197        -1.23214
C         21.01489        19.25054        -0.88457
C         22.23711        18.52584        -1.09564
C         23.38742         1.94553        -0.52980
C         23.51673         3.39953        -0.77687
C         24.54060         1.26568        -0.11683
C         24.63407         4.13520        -0.14143
C         23.42889         6.24451        -0.54882
C         23.48612         7.69938        -0.76030
C         24.62911         5.56191        -0.12099
C         24.75582         8.41192        -0.42345
C         23.43878        10.57091        -0.66707
C         23.41140        12.03826        -0.64368
C         24.72903         9.90468        -0.44252
C         24.60651        12.83320        -0.18542
C         23.55178        14.92559        -1.08725
C         23.48330        16.38806        -1.09995
C         24.66090        14.26410        -0.51445
C         24.67538        17.12124        -0.78880
C         23.46380        19.21391        -1.19534
C         24.70707        18.56038        -1.06559
C         25.73968         1.96219         0.23735
C         25.73955         3.42756         0.32379
C         26.87683         1.23627         0.52319
C         26.89494         4.13225         0.84043
C         25.75818         6.25391         0.44587
C         25.74892         7.72913         0.47342
C         26.88575         5.59383         0.97989
C         26.96366         8.47883         0.98950
C         25.92271        10.66120         0.03218
C         25.83497        12.12983         0.22105
C         27.13398         9.89923         0.51778
C         26.95302        12.84884         0.53139
C         25.83563        14.97514        -0.18614
C         25.84047        16.39580        -0.33233
C         26.98957        14.27941         0.30601
C         27.05598        17.01697         0.03788
C         25.87926        19.34239        -1.34937
C         27.16675        19.05828        -0.81471
C         28.06574         1.87572         1.15060
C         28.02355         3.37661         1.11961
C         29.40809         1.38521         0.64960
C         29.15124         3.98875         1.81948
C         28.00115         6.32594         1.62058
C         28.12108         7.73635         1.59222
C         29.04821         5.43320         2.22128
C         29.20070         8.61231         2.16509
C         28.29439        10.69137         1.00078
C         28.03105        12.16398         1.34112
C         29.31253        10.01335         1.84948
C         29.31835        12.97303         1.41883
C         28.22762        14.94938         0.31308
C         28.27944        16.32948         0.06577
C         29.47771        14.20262         0.57648
C         29.57301        17.01814        -0.20908
C         28.45788        19.26934        -1.24133
C         29.62987        18.46292        -0.73787
C         30.52804         2.07049         0.96601
C         30.47255         3.32462         1.70169
C         31.58826         3.94305         2.19892
C         30.29623         5.90075         2.86062
C         30.14869         8.20586         3.14831
C         31.46367         5.19481         2.89149
C         31.15221         9.02625         3.68067
C         30.37438        10.83332         2.32268
C         30.51720        12.27995         1.94373
C         31.30456        10.32993         3.23923
C         31.83632        12.93363         1.71409
C         30.79387        14.92371         0.61788
C         30.80630        16.40096         0.36605
C         31.93504        14.19651         1.24753
C         31.93458        17.16192         0.47763
C         30.86419        19.19366        -0.39377
C         31.93526        18.56864         0.16135
O         28.61194         4.35732         3.17189
O         17.85319        10.28234        -2.89960
O         16.57629        14.75727         0.58620
O          3.33689        11.48271        -1.34035
O         20.40571        12.51979        -2.81850
O         19.71585         9.60924         0.11841
O         28.27198        10.19013        -0.36569
O         10.81114        16.07069        -1.90243
O         14.34254         4.06543         0.48716
O         18.36903         2.53826        -2.92009
O         18.28392         6.91173         0.15734
O          8.67859        17.27320        -0.85163
O         15.36055        17.04392        -2.13771
O          3.48074         6.75820        -1.05840
O         29.80462        17.31008        -1.64032
O          6.16643        11.44244         0.96699
O         25.74114         8.34426         1.80683
O         13.36991         7.17086         0.22482
O         23.28623         3.76062        -2.16237
O         27.08027        18.35019         0.40868
O         23.45579        12.57775         0.73294
O          8.07375        16.92352         2.66597
O         25.73078        10.40627        -1.41590
O         10.74260         7.12685        -2.64935
O         24.56770         7.92215        -1.77514
O         21.71820        14.67103        -2.66395
O         30.36005        14.13037        -0.57679
O         30.15411         6.95777         3.74759
O         29.70390        13.19230         2.81864
O          5.64749         8.25301         1.35470
O         17.36814         5.89515        -3.19166
H         16.67895         5.36114        -3.63922
O         27.97698         1.48918         2.57621
H         28.11227         2.29627         3.12238
O         20.15742         4.38214        -3.28434
H         19.78166         3.59592        -3.74652
O         18.70030        19.81561         1.07258
H         18.78512        19.01876         1.63558
O         27.45759        12.08453         2.67364
H         28.11364        12.48963         3.29426
O          6.97398        13.25387        -2.15363
H          7.68908        13.85979        -2.44405
O         12.59035         5.36339        -2.90269
H         11.93240         5.87906        -3.42708
O          9.50071         3.86244        -2.44069
H          8.63497         4.26340        -2.66803
O         17.54337        12.32712         0.68632
H         17.05560        12.94015         1.28233
O         13.38379        15.23549        -2.76605
H         12.53485        15.70247        -2.95296
H          0.79771         1.48404         2.48107
H          0.56562         3.87013         1.89921
H          2.97921         0.31173         2.18248
H          0.41422         5.73995         1.40546
H          0.21697         8.10409         0.87542
H          0.22881        10.19691         0.54081
H          0.24535        12.50924         0.73689
H          0.32825        14.40507         1.51802
H          0.56778        16.62030         2.57568
H          1.95005        18.57451         3.20678
H          5.32260         0.34803         1.50706
H          4.13373        19.72686         3.27551
H          7.68658         0.35079         0.81379
H          6.47756        19.84233         2.64452
H         10.00758         0.32598         0.09873
H          9.03533        19.92699         2.07853
H         12.37796         0.28715        -0.38434
H         11.34104        20.07967         1.25381
H         14.84966         0.30612        -0.65210
H         13.64648        20.21656         0.63935
H         17.26573         0.30375        -0.76327
H         16.06812        20.34827         0.04757
H         19.74316         0.24327        -0.98033
H         18.50119        20.32177        -0.90950
H         22.09191         0.22477        -0.61975
H         21.07391        20.34439        -0.78091
H         24.53024         0.16823        -0.04617
H         23.44940        20.31013        -1.28730
H         26.85289         0.13812         0.45382
H         25.74381        20.22596        -1.99240
H         29.46646         0.42977         0.10826
H         28.64708        19.85141        -2.15613
H         31.52007         1.68562         0.68429
H         32.57344         3.46227         2.12356
H         32.30926         5.57940         3.47590
H         31.82106         8.60317         4.44043
H         32.10944        10.96673         3.62831
H         32.74199        12.40751         2.05209
H         32.92958        14.66532         1.19261
H         32.86979        16.71884         0.84926
H         30.88347        20.28234        -0.55050
H         32.84110        19.14630         0.39514
