         649
 CSIRO Nanostructure Databank - Neutral Graphene Oxide Data Set
C          6.74708        32.39046        -1.58220
C          6.71131        33.70425        -1.23093
C          8.93898        27.91952        -1.36127
C          8.80245        29.26374        -0.85774
C          7.75184        30.12804        -1.33235
C          8.63392        32.01214        -0.03503
C          7.70813        31.47657        -0.99837
C          8.61177        33.35752         0.34028
C          7.60468        34.25961        -0.22849
C          8.30294        36.03255         1.37729
C          7.50494        35.56784         0.17598
C          8.44284        37.52950         1.54788
C         11.41175        23.85361        -2.41018
C         11.33331        25.20344        -1.93381
C         10.11622        25.78874        -1.63105
C         10.93335        27.52450         0.02258
C          9.96315        27.06895        -0.95165
C         11.05816        29.01679         0.20080
C          9.74271        29.74343         0.05220
C         10.69250        31.68512         1.49104
C          9.57478        31.08789         0.61335
C         10.76321        33.14475         1.53598
C          9.66921        33.90539         1.14671
C         10.60765        35.93542         2.40961
C          9.71208        35.41274         1.27958
C         10.85972        37.42434         2.13577
C          9.61156        38.16437         1.92669
C         10.83423        40.31671         1.92524
C          9.64993        39.61132         1.95924
C         10.86469        41.73781         1.78544
C         13.74117        19.52763        -2.78780
C         13.73837        20.91238        -2.48256
C         12.60884        21.72490        -2.68860
C         13.81393        23.69484        -1.74463
C         12.58422        23.10158        -2.34364
C         13.82472        25.13058        -1.28208
C         12.62807        25.94638        -1.76703
C         13.26644        27.34537         0.81956
C         12.00976        26.73801         0.47681
C         13.18755        28.63898         1.51702
C         11.90987        29.41062         1.40355
C         13.21050        31.52111         2.08816
C         11.89693        30.84532         1.86623
C         13.20547        33.00429         2.30372
C         11.93076        33.76124         2.15281
C         13.63366        36.10054         2.30278
C         11.80132        35.05044         2.59216
C         13.34082        37.39174         1.81183
C         12.08056        38.07255         1.97868
C         13.02255        40.20258         0.81019
C         12.17003        39.60107         1.95519
C         13.21493        41.69169         1.00540
C         12.01258        42.44068         1.38316
C         13.15392        44.56494         0.84278
C         12.03477        43.85756         1.32087
C         13.20074        45.96155         0.77176
C         16.05032        15.15214        -2.86831
C         16.04357        16.52661        -2.66385
C         14.88342        17.33665        -2.81935
C         16.21793        19.43981        -2.49288
C         14.89305        18.72848        -2.64461
C         16.13684        20.75785        -1.77177
C         14.89799        21.48239        -1.79412
C         15.88111        23.21823        -0.34054
C         14.82416        22.74790        -1.23550
C         15.73608        24.55801         0.37419
C         14.71211        25.54404        -0.16569
C         15.71714        27.31006         1.25121
C         14.52033        26.69054         0.65841
C         15.74660        28.65001         1.62810
C         14.46652        29.35618         1.88912
C         15.68134        31.52043         1.71092
C         14.39946        30.82797         2.00412
C         15.71111        32.99975         1.59552
C         14.53402        33.78544         2.08226
C         15.71299        35.78289         0.98326
C         14.57795        35.21978         1.76285
C         15.69452        37.26880         0.81880
C         14.38368        37.99554         0.96502
C         15.65253        40.12209         0.38015
C         14.32353        39.42303         0.55799
C         15.62869        41.61627         0.33942
C         14.34841        42.33203         0.60571
C         15.61169        44.51464         0.29608
C         14.29388        43.78875         0.22148
C         15.59101        45.88965         0.13706
C         14.37329        46.65357         0.32712
C         15.62275        48.77803        -0.04185
C         14.41011        48.04837         0.21314
C         15.63725        50.18373        -0.08670
C         18.24315        10.86604        -1.80176
C         18.31069        12.18530        -2.39564
C         17.18655        12.95264        -2.61858
C         18.50471        15.03574        -2.63500
C         17.25685        14.38308        -2.75716
C         18.56459        16.41572        -2.23140
C         17.27326        17.13267        -2.08745
C         18.59305        19.29482        -1.62011
C         17.30164        18.60430        -1.85602
C         18.59947        20.64872        -1.42210
C         17.31476        21.33887        -1.33399
C         18.47859        23.21858        -0.04104
C         17.24210        22.51495        -0.45749
C         18.27679        24.49935         0.62497
C         17.07614        25.18653         0.69119
C         18.23181        27.27218         1.70455
C         16.95834        26.51021         1.36051
C         18.23903        28.73607         1.76912
C         16.99230        29.39645         1.79990
C         18.18699        31.55372         1.88577
C         16.97429        30.81527         1.84496
C         18.19216        33.01692         1.78717
C         17.01607        33.69388         1.60363
C         18.20923        35.88056         1.49185
C         17.06400        35.05586         0.96276
C         18.08660        37.33443         1.62930
C         16.92763        38.06834         1.04191
C         18.04491        40.28013         1.27860
C         16.89228        39.42663         0.87308
C         18.08931        41.71201         0.86495
C         16.88460        42.38354         0.56975
C         18.08700        44.52464         0.42212
C         16.84947        43.78689         0.40400
C         18.07469        45.87672         0.05154
C         16.81677        46.56692        -0.40734
C         18.05346        48.77212        -0.35428
C         16.85416        48.06737        -0.22491
C         18.08323        50.19395        -0.33821
C         16.84355        50.91283        -0.27184
C         18.06258        53.03074        -0.63666
C         16.85800        52.32200        -0.41993
C         18.06674        54.41989        -0.90905
C         20.22937         6.81181         0.01863
C         20.37237         8.12620        -0.36249
C         19.14494         9.00660        -0.43147
C         20.67019        10.97387        -1.21836
C         19.32623        10.27140        -1.23769
C         20.85310        11.84100        -2.48112
C         19.64004        12.74253        -2.70654
C         21.05800        14.96278        -2.72100
C         19.73618        14.25577        -2.82495
C         21.04220        16.42701        -2.32615
C         19.75446        17.07469        -1.98365
C         21.05171        19.14987        -1.23486
C         19.74710        18.39988        -1.23680
C         21.08915        20.55680        -1.16680
C         19.87295        21.47653        -1.31751
C         20.91578        23.30611         0.25149
C         19.74777        22.67694        -0.31618
C         20.77826        24.43883         1.18809
C         19.45879        25.11033         1.28238
C         20.78705        27.34322         1.47801
C         19.49903        26.60141         1.33638
C         20.74835        28.77569         1.79090
C         19.47430        29.45624         1.78062
C         20.67878        31.64069         1.73229
C         19.42280        30.87370         1.83981
C         20.65801        33.11450         1.88881
C         19.44706        33.77494         1.80678
C         20.64757        35.98390         1.86733
C         19.40396        35.23452         1.78233
C         20.64723        37.39257         1.81613
C         19.36630        38.11255         1.93193
C         20.62356        40.33243         1.71002
C         19.30800        39.60893         1.78285
C         20.59844        41.79524         1.34153
C         19.30436        42.45109         0.98254
C         20.57998        44.57711         0.79742
C         19.30711        43.82511         0.73047
C         20.58838        45.98417         0.29551
C         19.32924        46.56642        -0.23051
C         20.61221        48.78172        -0.33332
C         19.33518        48.04700        -0.49612
C         20.57973        50.20476        -0.41050
C         19.32666        50.90728        -0.44395
C         20.54928        53.03121        -0.73349
C         19.31753        52.31555        -0.59547
C         20.52165        54.42150        -1.10407
C         19.26556        55.11562        -1.21044
C         20.44778        57.13650        -2.00589
C         19.26302        56.48069        -1.59160
C         20.48712        58.51327        -2.34843
C         22.31900         3.82534         0.87002
C         21.20615         4.61779         0.64278
C         22.66900         6.48139         0.00391
C         21.36168         5.95877         0.21316
C         22.82651         7.85490        -0.39769
C         21.68063         8.67872        -0.59218
C         23.13176        10.53660        -1.20276
C         21.84660        10.02567        -1.03453
C         23.35623        11.88187        -1.79762
C         22.20414        12.60907        -2.43415
C         23.57025        14.79603        -2.00987
C         22.31439        14.12378        -2.56038
C         23.57368        16.28025        -1.72975
C         22.31471        17.09092        -1.87379
C         23.49706        19.03921        -0.85702
C         22.26303        18.43123        -1.25065
C         23.50944        20.45034        -0.62449
C         22.37400        21.12489        -1.08269
C         23.37559        23.25338         0.77106
C         22.25134        23.03470        -0.08263
C         23.21949        24.42107         1.64784
C         22.01279        25.23074         1.44981
C         23.26706        27.29755         1.99692
C         22.03505        26.57784         1.68318
C         23.21219        28.72815         2.08841
C         21.97980        29.42694         1.99910
C         23.18665        31.70658         2.26810
C         21.98150        30.90647         1.89779
C         23.15321        33.14836         1.90097
C         21.91355        33.83677         1.88312
C         23.12179        35.96851         1.68981
C         21.89473        35.26347         1.83280
C         23.10673        37.41484         1.56255
C         21.86783        38.12797         1.62374
C         23.06263        40.25858         1.23552
C         21.86848        39.55386         1.49868
C         23.07785        41.67819         0.93452
C         21.86318        42.42051         0.90589
C         23.04898        44.51897         0.49094
C         21.87227        43.84185         0.73106
C         23.09303        46.03121         0.48540
C         21.86510        46.58186        -0.26249
C         23.06838        48.79497        -0.31956
C         21.82388        48.09637        -0.25165
C         23.06366        50.21208        -0.43662
C         21.80886        50.92021        -0.47052
C         23.04719        53.06425        -0.61359
C         21.77754        52.33094        -0.60530
C         23.01916        54.49800        -1.17145
C         21.71049        55.09299        -1.49789
C         22.87189        56.97314        -2.65542
C         21.66995        56.38360        -2.03648
C         22.90383        58.42637        -2.88660
C         21.69807        59.17106        -2.70681
C         22.92654        61.19510        -3.28449
C         21.73901        60.57545        -2.92420
C         23.61251         4.33860         0.65959
C         25.19900         6.13780        -0.06223
C         23.79873         5.64864         0.22660
C         25.31384         7.63845        -0.19555
C         24.13447         8.42124        -0.48198
C         25.56096        10.43699        -0.68437
C         24.27685         9.78591        -0.81219
C         25.66303        11.82653        -0.80762
C         24.54493        12.61350        -1.29849
C         25.73304        14.64746        -0.58821
C         24.61055        13.98103        -1.34535
C         25.87114        16.12644        -0.82088
C         24.72957        16.89171        -1.01853
C         25.98727        19.05101        -0.52896
C         24.70471        18.29052        -0.75874
C         25.83616        20.26623         0.38157
C         24.57510        21.08495         0.22063
C         25.76210        22.98010         1.39379
C         24.58696        22.50114         0.72518
C         25.75606        24.32842         2.03662
C         24.48739        25.13344         2.08924
C         25.78669        27.34208         1.95467
C         24.48261        26.59374         2.11990
C         25.75372        28.74796         2.56472
C         24.38913        29.43181         2.74637
C         25.74215        31.64437         2.12562
C         24.47215        30.97100         2.51526
C         25.67735        33.06452         1.56189
C         24.37181        33.83912         1.76280
C         25.56334        35.94212         1.09681
C         24.33487        35.23620         1.59644
C         25.58029        37.43331         1.37428
C         24.31787        38.13733         1.43583
C         25.52594        40.27962         1.11280
C         24.31148        39.55705         1.24963
C         25.55669        41.66133         0.77720
C         24.30442        42.32808         0.62447
C         25.56425        44.49232         0.39398
C         24.25602        43.73171         0.05898
C         25.50867        45.91517        -0.11545
C         24.34487        46.63324        -0.10659
C         25.49711        48.76800        -0.63313
C         24.30258        48.06080        -0.39247
C         25.51507        50.18488        -0.59936
C         24.30793        50.91472        -0.53522
C         25.49752        53.07030        -0.92952
C         24.32520        52.34953        -0.68205
C         25.47224        54.40388        -1.46731
C         24.25474        55.01928        -1.74029
C         25.46285        56.96959        -2.76737
C         24.20097        56.23393        -2.56127
C         25.35576        58.25279        -3.56501
C         24.10345        59.05966        -3.26135
C         24.10407        60.44878        -3.45501
C         26.54811         8.24121        -0.12442
C         27.95948        10.27739        -0.14307
C         26.71654         9.65628        -0.31210
C         28.11785        11.68313        -0.27544
C         26.93689        12.48052        -0.59459
C         28.35532        14.54511        -0.66822
C         27.01370        13.85524        -0.64946
C         28.22935        15.91798         0.00984
C         27.20797        16.80899        -0.70565
C         28.28432        18.75756         0.39927
C         27.14173        18.18628        -0.09994
C         28.29827        20.16662         0.79709
C         27.07425        20.92905         0.85621
C         28.26899        22.87879         1.82373
C         26.99419        22.23738         1.37279
C         28.35832        24.35138         2.14444
C         27.05971        25.11120         2.28793
C         28.33574        27.28471         2.16898
C         27.04800        26.56652         2.25935
C         28.32698        28.80487         2.16913
C         27.02711        29.54092         2.44469
C         28.21554        31.70263         1.82973
C         26.95172        30.99585         2.12993
C         28.20312        33.07927         1.82909
C         26.89611        33.85824         2.06647
C         27.99513        35.94710         1.23131
C         26.86002        35.26111         1.46883
C         28.01647        37.42763         1.04710
C         26.76298        38.12575         1.41041
C         28.09124        40.37286         1.43279
C         26.78215        39.60550         1.47564
C         28.07683        41.73038         0.81996
C         26.82533        42.33653         0.57287
C         28.08795        44.44460        -0.02600
C         26.78954        43.68910        -0.10277
C         28.05988        45.90231        -0.28046
C         26.74553        46.53517        -0.61247
C         28.02934        48.76338        -1.08245
C         26.72995        48.01303        -0.91815
C         28.08746        50.18609        -0.64530
C         26.79086        50.91891        -0.49778
C         28.05382        53.05734        -1.18375
C         26.80092        52.42732        -0.69461
C         27.93692        54.40444        -1.69605
C         26.72348        55.05142        -1.84784
C         26.64636        56.38830        -2.42134
C         29.33352        12.32641         0.02261
C         30.67009        14.40748         0.20646
C         29.48033        13.73291        -0.05905
C         30.76548        15.84130         0.21936
C         29.53806        16.63138         0.19481
C         30.80260        18.61393         0.94037
C         29.52002        17.97148         0.47224
C         30.78158        20.11396         0.82158
C         29.53157        20.77157         1.05452
C         30.77132        22.97718         1.12605
C         29.55793        22.17608         1.47543
C         30.56858        24.45569         0.87105
C         29.69077        25.11060         1.96234
C         30.63710        27.31191         1.21783
C         29.53056        26.59266         1.63970
C         30.63449        28.77869         1.23099
C         29.47282        29.51611         1.56944
C         30.69462        31.61747         1.40442
C         29.46802        30.94819         1.58212
C         30.80661        33.06570         1.83733
C         29.46961        33.85508         1.77359
C         30.36209        36.07003         0.72632
C         29.31019        35.30394         1.41142
C         30.57119        37.39505         0.86372
C         29.30857        38.18305         1.00686
C         30.69582        40.27889         1.09125
C         29.40480        39.57433         1.58919
C         30.59536        41.62288         0.36125
C         29.30705        42.40310         0.54405
C         30.56531        44.55704        -0.04226
C         29.29037        43.78211         0.14196
C         30.53259        45.77224        -0.95803
C         29.32070        46.62074        -0.65616
C         30.61917        48.77045        -1.09452
C         29.32149        48.03193        -1.16154
C         30.60730        50.14903        -1.18686
C         29.38472        50.93780        -0.85983
C         29.25087        52.37130        -1.19791
C         31.98114        16.52404         0.21187
C         33.15439        18.69397         0.08134
C         32.02495        17.95144         0.34291
C         33.19030        20.13348         0.23760
C         31.95537        20.83329         0.59864
C         33.09765        23.02234         0.37075
C         31.95188        22.27720         0.57952
C         33.07026        24.47221         0.40340
C         31.87239        25.19708         0.69534
C         33.05003        27.33165         0.50915
C         31.85595        26.59710         0.80355
C         33.02739        28.74385         0.59947
C         31.85562        29.47512         0.96374
C         33.18534        31.57466         1.13109
C         31.91064        30.90881         1.14342
C         33.37761        33.01522         1.60690
C         32.08055        33.74131         1.32992
C         33.30785        35.85563         0.71690
C         32.19448        34.90778         0.64824
C         33.16576        37.23117         0.63066
C         31.85839        38.00758         0.33119
C         33.10115        40.19141         0.15966
C         31.93293        39.48403         0.72286
C         33.15915        41.65341         0.17524
C         31.90224        42.42676         0.45870
C         33.08160        44.46514        -0.59849
C         31.88527        43.87422         0.06992
C         33.03390        45.83568        -0.93457
C         31.82457        46.57712        -0.94738
C         31.81223        47.96785        -1.08596
C         34.33917        20.85558         0.03365
C         35.53300        23.08004        -0.19861
C         34.42410        22.30331         0.42771
C         35.50152        24.46816        -0.17169
C         34.27209        25.17990         0.16111
C         35.48946        27.28128        -0.03587
C         34.26902        26.60845         0.18207
C         35.52348        28.73929        -0.04742
C         34.24415        29.49967         0.28734
C         35.64356        31.48561         0.81726
C         34.35000        30.88888         0.76498
C         35.77914        32.94614         0.57475
C         34.51056        33.70577         0.82452
C         35.75004        35.82473         0.41432
C         34.58534        35.18284         0.79406
C         35.74015        37.30134         0.41548
C         34.43027        38.02551         0.62904
C         35.55134        40.13882        -0.43938
C         34.38992        39.49952         0.23369
C         35.42579        41.52629        -0.80713
C         34.31781        42.30524        -0.48399
C         34.23125        43.68743        -0.80917
C         36.69634        25.20465        -0.42318
C         37.94694        27.33839        -0.44494
C         36.72934        26.59755        -0.27799
C         38.04331        28.71260        -0.16611
C         36.82183        29.37384         0.24442
C         38.52815        31.71247         0.12229
C         36.77854        30.64776         0.78750
C         38.21903        33.02571        -0.22734
C         37.02577        33.70437         0.22974
C         37.97723        35.80563        -0.70789
C         36.94059        35.09412         0.04019
C         37.89030        37.17041        -0.94616
C         36.88828        38.02231        -0.29887
C         36.67510        39.40772        -0.75292
C         39.22584        29.44149        -0.56762
C         40.28250        31.51935        -1.52528
C         39.37241        30.83790        -0.62810
C         40.18277        32.86894        -1.73074
C         39.14146        33.67903        -1.13039
C         39.01623        35.04088        -1.34478
O         26.84628        51.83186         0.63898
O         17.50411        26.55849         2.73608
O         30.57672        22.49073         2.49158
O         15.73607        40.81835        -0.90579
O         20.54858        45.73787         1.73621
O         28.52756        38.01222        -0.23206
O         16.30599        22.22244         0.64884
O         28.73192        28.07344         3.37257
O         23.39744        14.50530        -3.43700
O         23.32953        17.07434        -2.93656
O         32.80407        42.18094         1.54885
O         28.39174        23.34814         3.20440
O         19.41703        47.07910        -1.61673
O         11.41527        29.74521         2.71712
O         19.68629        13.38361        -4.01522
O         20.14168        27.12015         0.13197
O         27.34536        40.26445         2.68482
O         14.53312        24.73538        -2.53550
O         28.61978        48.42168        -2.38962
O         26.59222        47.01466        -1.98498
O         34.56127        39.04845         1.65228
O         31.13525        35.33233        -0.15698
O         15.51772        32.20679         0.37604
O         12.76373        27.11013        -2.12077
O         29.53615        34.92825         2.82293
O         21.13242        16.00495        -3.73056
O         23.09871        54.22356         0.27249
O         18.47808        37.70135         3.00628
O         37.96459        31.20143         1.29235
O         23.61788        24.41416         3.03982
O         26.30374        24.46223         3.38145
O         28.94594        50.47565         0.49034
O         14.00863        38.39526        -0.42912
O         31.71683        40.01480         2.07977
O         36.83875        37.86649         1.17490
O         13.68544        28.61143         2.88795
O         21.50652        31.27853         0.55467
O         19.94960        24.32266         2.40673
O         18.36708        40.18929         2.71952
O         12.82013        35.63272         3.36011
O         15.51782        36.37850        -0.34982
O         24.79561        20.15873         1.37924
O         23.37809        56.14765        -3.79074
O         23.72883        31.60767         3.62062
O         34.74855        33.19753        -0.51667
O         16.95285        17.71056        -0.74565
O         28.86878        46.62340         0.73195
O         26.53175        29.05609         3.74333
O         31.36216        44.73008         1.15362
O         14.07032        33.40548         3.40926
O         23.18959        11.92626        -3.26097
O         34.71759        29.36001        -1.10996
O         20.72337        41.35511         2.75027
O          9.47668        31.15485         2.08445
O         22.51744        22.48787        -1.33430
O         27.72954        15.65573         1.35716
H         27.92455        16.43853         1.91631
O         30.54198        41.20973        -1.05745
H         30.33789        41.99914        -1.60358
O         18.00956         8.26708        -0.88383
H         18.19348         7.95219        -1.79249
O         30.38653        25.08150         3.21375
H         30.07888        24.27880         3.69931
O         17.40926        34.76387        -0.42448
H         16.79363        35.28673        -0.99360
O         27.65510        17.05286        -2.08386
H         27.22145        17.89132        -2.38325
O         11.90057        25.38639         0.57762
H         12.68715        25.03076         1.04653
O         25.88149        27.65325         0.49596
H         25.73388        26.82656        -0.01110
O         25.82929        32.92232         0.12189
H         25.62776        33.79739        -0.29229
O         30.85902        18.33968         2.38589
H         31.64328        18.80601         2.74549
O         33.74961        33.01015         2.99524
H         32.92735        32.79444         3.50198
O         20.68276        11.91328        -0.10180
H         20.59865        11.40542         0.73245
O         12.86497        39.96120         3.18005
H         12.32244        39.66945         3.94216
O         31.06010        32.93657         3.28045
H         30.78223        33.78684         3.69612
O         21.98937        46.14885        -1.63257
H         21.18908        46.47079        -2.11379
O         25.30100        14.57477         0.83383
H         26.07540        14.89372         1.36657
O         24.04472        43.60497        -1.37582
H         24.91622        43.43025        -1.80759
O         10.33287        35.91139         0.06464
H          9.77402        35.63674        -0.69388
O         19.51250        18.04559         0.16846
H         18.55193        17.81142         0.24233
O          9.90688        35.88553         3.69179
H         10.58428        35.94174         4.39980
O         26.76742        34.04118         3.49273
H         27.59512        34.46688         3.81062
O         28.75117        14.67608        -2.05729
H         28.24159        15.41518        -2.46785
O         23.09040        46.46547         1.87021
H         22.20809        46.22451         2.25374
O         16.72547        46.36870        -1.87092
H         16.50039        45.42622        -2.02861
O         11.87500        29.53428        -0.92393
H         12.03561        28.79806        -1.56486
O         29.58260        39.30935         2.99157
H         29.64013        40.16050         3.47354
O         20.88662        10.92471        -3.58105
H         21.02622        11.44782        -4.39934
O         25.31152        57.87761        -4.95710
H         24.56652        57.23862        -5.05060
O         24.05474        29.23802         4.14280
H         24.87244        29.40974         4.66510
O         25.67572        44.54357         1.83191
H         24.98904        45.15856         2.17521
O         26.62699        43.44245        -1.55310
H         27.38009        42.88750        -1.84707
O         16.70065        19.69731        -3.84924
H         16.02256        20.23251        -4.31290
O          7.57368        35.52338         2.52168
H          8.14466        35.64057         3.31657
O         26.12611         5.63505         0.90815
H         25.86794         5.98179         1.78638
O         12.22716        40.13634        -0.39359
H         12.52329        39.33124        -0.88525
O         14.00073        43.75328        -1.22574
H         13.26181        43.12191        -1.36371
O         34.76061        22.28588         1.88181
H         33.96136        21.97163         2.35829
O         29.80674        24.57015        -0.37142
H         30.42767        24.48449        -1.12534
O         31.78250        38.05023        -1.12206
H         31.52593        37.15215        -1.42770
O         26.36970        19.56111        -1.87089
H         25.54615        19.71488        -2.38392
O         20.03627        22.11034        -2.61851
H         19.22180        22.61586        -2.82198
O         25.48975        35.78830        -0.37369
H         26.19264        36.34915        -0.76943
O         30.36006        45.23971        -2.30441
H         30.24093        45.99444        -2.92040
O         15.16733        24.23499         1.69163
H         15.67685        23.46216         2.03359
H          6.03701        31.99672        -2.32437
H          5.96530        34.37479        -1.68311
H          8.24254        27.58024        -2.14224
H          7.02433        29.72338        -2.05152
H          6.73033        36.22039        -0.25621
H          7.54573        38.14760         1.37969
H         10.48329        23.36122        -2.73903
H          9.19673        25.25226        -1.91940
H          8.69591        40.15541         1.87519
H          9.93030        42.29927         1.94457
H         12.79773        19.05575        -3.10412
H         11.70673        21.28183        -3.13687
H         11.15440        44.41942         1.67055
H         12.32791        46.55014         1.09513
H         15.11925        14.63484        -3.14426
H         13.93496        16.84172        -3.08119
H         13.48661        48.62183         0.38538
H         14.69029        50.73591         0.00853
H         17.25998        10.37569        -1.72388
H         16.19183        12.50149        -2.48211
H         15.90583        52.87313        -0.40927
H         17.10893        54.95953        -0.95235
H         19.22036         6.41079         0.19609
H         18.90848         9.32547         0.62772
H         18.31361        57.03606        -1.59267
H         19.56144        59.10444        -2.28939
H         22.19639         2.78767         1.21030
H         20.19464         4.21769         0.80204
H         22.94879        62.28210        -3.44428
H         20.82110        61.16624        -2.79466
H         24.49153         3.70304         0.83688
H         25.51398         5.69079        -1.04900
H         26.26644        58.88569        -3.41962
H         25.03478        60.95497        -3.74827
H         27.43158         7.62722         0.10620
H         28.83213         9.66613         0.13265
H         28.85849        54.91712        -2.01210
H         27.59192        56.91484        -2.62495
H         30.18154        11.72136         0.37992
H         31.57992        13.82848         0.43078
H         31.56011        50.69512        -1.27151
H         30.13923        52.87687        -1.60841
H         32.91919        15.97260         0.04645
H         34.07161        18.19040        -0.26082
H         33.97271        46.34782        -1.19707
H         32.78031        48.49278        -1.10985
H         35.27188        20.33270        -0.22756
H         36.46722        22.56142        -0.46220
H         36.27720        41.99877        -1.32002
H         35.10059        44.16035        -1.29083
H         37.62098        24.65531        -0.65310
H         38.83898        26.79556        -0.79149
H         38.60027        37.63900        -1.64430
H         37.47982        39.88540        -1.33291
H         39.97882        28.84306        -1.10775
H         41.04387        30.93325        -2.06036
H         40.88718        33.36622        -2.41373
H         39.73240        35.56471        -1.99512
