         349
 CSIRO Nanostructure Databank - Neutral Graphene Oxide Data Set
C          1.38563         2.45466        -2.07669
C          1.33783         3.80907        -1.70981
C          2.56471         1.73667        -1.98027
C          2.47767         4.47966        -1.23232
C          1.25557         6.59816        -0.74125
C          1.11070         7.91058        -0.21424
C          2.45587         5.88979        -0.85532
C          1.96110         8.52595         0.70155
C          1.00571        10.79942         0.60944
C          1.08485        12.21578         0.50691
C          2.10558         9.97981         0.76958
C          2.29004        12.88587         0.52881
C          1.25420        15.14809         0.32297
C          1.30118        16.47724        -0.06722
C          2.39785        14.31669         0.24412
C          2.49979        17.02850        -0.56873
C          2.55093        18.39788        -1.05186
C          3.74427         2.36628        -1.49227
C          3.69852         3.74721        -1.11001
C          4.95957         1.65027        -1.40779
C          4.87431         4.35828        -0.56269
C          3.72468         6.51893        -0.53762
C          3.91605         7.99802        -0.69560
C          4.85603         5.77460        -0.25822
C          4.93636         8.66350         0.18876
C          3.44678        10.58937         0.96887
C          3.51525        12.12859         0.84471
C          4.75224         9.87107         0.78583
C          4.82900        12.73457         0.53686
C          3.63652        14.88109        -0.15253
C          3.66413        16.22674        -0.58086
C          4.81230        13.93838        -0.41306
C          4.91220        16.78966        -1.15357
C          3.65539        18.94293        -1.61891
C          4.90489        18.17023        -1.78711
C          6.13214         2.25722        -0.91729
C          6.05595         3.60545        -0.43750
C          7.38883         1.58060        -1.02070
C          7.25581         4.21613         0.15606
C          6.00382         6.42131         0.50508
C          6.25682         7.91179         0.18843
C          7.29827         5.65865         0.39378
C          7.33906         8.45010         1.13430
C          5.94529        10.62478         1.30778
C          5.96793        12.06101         0.86690
C          7.24013         9.89124         1.54422
C          7.26378        12.75958         0.68261
C          6.23122        14.63163        -0.55194
C          6.14605        16.13996        -0.64376
C          7.13817        14.27707         0.66262
C          7.22567        16.86831        -0.26663
C          6.16854        18.87958        -2.19746
C          7.32035        18.73015        -1.47158
C          8.60836         2.19505        -0.70064
C          8.58658         3.48690         0.01936
C          9.85944         1.62989        -1.00565
C          9.82353         4.28880         0.07996
C          8.49123         6.28942         0.71629
C          8.45717         7.64550         1.28336
C          9.75783         5.63812         0.54342
C          9.69431         8.05194         1.93734
C          8.50918        10.69163         1.54959
C          8.53436        12.08077         1.03173
C          9.64914        10.22556         2.11428
C          9.77075        12.86515         1.47660
C          8.49752        14.98779         0.61853
C          8.54491        16.28960        -0.09706
C          9.78030        14.29926         0.96592
C          9.70918        16.88267        -0.53312
C          8.69762        18.88114        -1.83562
C          9.78874        18.15184        -1.29890
C         11.07637         2.31546        -0.72529
C         11.03424         3.67427        -0.24737
C         12.32553         1.68610        -0.89756
C         12.30745         4.47753        -0.22794
C         10.99192         6.32859         0.85295
C         10.95046         7.60607         1.56953
C         12.19873         5.69750         0.64012
C         12.20194         8.38766         1.71478
C         11.00674        10.77581         1.90699
C         10.99078        12.03129         1.04299
C         12.22785         9.89472         1.80136
C         12.28888        12.77929         1.00009
C         11.03128        14.84833         0.40997
C         10.95910        16.06614        -0.42100
C         12.24930        14.15167         0.54194
C         12.28947        16.69579        -0.80896
C         11.06850        18.68755        -1.61427
C         12.30263        18.09611        -1.27186
C         13.54239         2.29997        -0.46902
C         13.54589         3.64384        -0.00274
C         14.74906         1.55883        -0.41504
C         14.72335         4.20298         0.51417
C         13.40248         6.27723         1.25775
C         13.39281         7.74642         1.47551
C         14.68534         5.51781         1.21247
C         14.67051         8.44751         1.06229
C         13.47556        10.60741         1.35562
C         13.47425        12.04186         1.13008
C         14.68068         9.92905         1.30524
C         14.74293        12.70806         0.99351
C         13.48809        14.79527         0.21248
C         13.53191        16.09507        -0.30360
C         14.76137        14.01469         0.24508
C         14.75846        16.81593        -0.41490
C         13.53286        18.72766        -1.44834
C         14.77249        18.12637        -1.04042
C         15.92805         2.12675         0.06306
C         15.92688         3.46273         0.53612
C         17.16774         1.26335         0.16030
C         17.18906         4.11336         0.98308
C         15.97679         6.25436         1.45352
C         15.95692         7.75975         1.48924
C         17.24693         5.58365         1.14962
C         17.23083         8.48219         1.26455
C         15.94812        10.61536         1.30724
C         15.93783        12.05068         1.25087
C         17.17138         9.90921         1.25684
C         17.17094        12.89789         1.55199
C         15.98775        14.86812         0.44465
C         15.97393        16.19026         0.01427
C         17.22807        14.10822         0.63416
C         17.19719        17.02256         0.10015
C         15.97831        18.78383        -1.28208
C         17.21434        18.35263        -0.62881
C         18.44785         2.05300         0.03160
C         18.48501         3.39044         0.65606
C         19.57638         1.51081        -0.49412
C         19.69292         4.21614         0.47150
C         18.44975         6.30944         1.07497
C         18.44742         7.77913         1.17179
C         19.66140         5.60247         0.73686
C         19.66732         8.56010         0.95257
C         18.44999        10.63932         1.41120
C         18.49152        12.11297         1.66063
C         19.68404         9.93396         1.02116
C         19.84065        12.90080         1.73724
C         18.55563        14.85350         0.53817
C         18.52828        16.38332         0.50313
C         19.74774        14.28040         1.10906
C         19.71782        16.86009        -0.35337
C         18.51407        18.97782        -0.93018
C         19.72260        18.34653        -0.66803
C         20.85012         2.20878        -0.43071
C         20.86961         3.55025         0.04596
C         22.03107         1.56765        -0.82638
C         22.18018         4.25444         0.24674
C         20.93480         6.35400         0.62765
C         20.94080         7.84595         0.71138
C         22.05526         5.71728        -0.18171
C         22.13149         8.57634         0.20952
C         20.77602        10.80345         0.40958
C         21.10351        12.11048         1.19199
C         22.07649        10.04194         0.12152
C         22.14233        13.02549         0.56057
C         20.95202        15.16558         1.23512
C         20.98898        16.38216         0.30719
C         22.18306        14.33291         0.94824
C         22.16563        17.01155         0.04333
C         20.96769        18.98377        -0.87149
C         22.20851        18.31225        -0.64305
C         23.30885         2.22606        -0.80337
C         23.36526         3.58121        -0.37731
C         24.49743         1.58385        -1.20341
C         24.57163         4.31240        -0.42399
C         23.36556         6.45185        -0.02340
C         23.34552         7.90264         0.10002
C         24.53983         5.75176        -0.13282
C         24.61035         8.62468         0.16637
C         23.38438        10.78897         0.29969
C         23.26795        12.11984         1.01261
C         24.62754        10.00803         0.40749
C         24.63396        12.79023         1.24636
C         23.44055        15.06770         1.11887
C         23.44289        16.48211         0.59377
C         24.71631        14.30321         1.22023
C         24.72842        17.04010         0.16740
C         23.43024        18.88491        -0.95343
C         24.68018        18.04922        -0.95208
C         25.75279         2.25969        -1.13723
C         25.75883         3.65672        -0.78913
C         26.97083         1.60415        -1.39910
C         26.98942         4.46537        -1.08336
C         25.81980         6.44830         0.08359
C         25.84543         7.91182         0.16050
C         27.09006         5.73954        -0.28493
C         27.08761         8.59485         0.16733
C         25.87053        10.70817         0.56084
C         25.87377        12.08553         0.82353
C         27.11206        10.00308         0.34484
C         27.07572        12.86221         0.34236
C         25.96889        15.04046         0.88446
C         25.91763        16.45298         0.54229
C         27.14088        14.32357         0.70109
C         27.18083        17.29380         0.52181
C         25.97856        18.76772        -1.14711
C         27.16853        18.35690        -0.61266
C         28.24994         2.20587        -0.88572
C         28.28866         3.70655        -1.04901
C         29.52754         1.54661        -1.34149
C         29.46052         4.40143        -1.09149
C         28.32651         6.52595        -0.44399
C         28.33160         7.88492        -0.08375
C         29.51518         5.83576        -0.79697
C         29.57667         8.58241        -0.05585
C         28.36430        10.71379         0.36274
C         28.38361        12.12139         0.47698
C         29.59813         9.98906         0.21153
C         29.61385        12.83402         0.47060
C         28.39799        15.00661         0.53531
C         28.42362        16.42130         0.54415
C         29.63446        14.28003         0.49182
C         29.66095        17.05541         0.59134
C         28.37368        18.99491        -1.11610
C         29.61600        18.93068        -0.51081
C         30.65889         2.23106        -1.55444
C         30.72016         3.73676        -1.60382
C         31.95716         4.35138        -1.00356
C         30.76273         6.47461        -0.62454
C         30.79331         7.86543        -0.27893
C         31.97105         5.65750        -0.65598
C         32.02106         8.58487        -0.17094
C         30.83465        10.68204         0.25311
C         30.84654        12.11431         0.39812
C         32.03917         9.93362         0.08429
C         32.06772        12.84169         0.39271
C         30.88219        14.97103         0.42440
C         30.90543        16.41790         0.37907
C         32.08558        14.21800         0.38987
C         32.04466        17.19010         0.01358
C         30.90989        19.17262        -1.05833
C         32.02507        18.43943        -0.63883
O         13.85012         5.45446         2.42257
O         18.47077        11.22277         2.82605
O         15.95177         7.00662         2.72199
O          6.34077        10.25030         2.66626
O         21.33126         6.99141         1.87149
O          8.15729        12.23952        -0.37706
O          3.48652        11.46162         2.14356
O          9.09665        15.17376         1.96363
O          7.12889        18.26009        -0.15392
O         24.79130        13.54756         2.48378
O         22.76106        10.66151        -1.02799
O         22.24797        11.76263         2.15677
O         26.64233         5.71881         1.09336
O         23.39175        16.19575         2.02971
O         29.65875        18.44258         0.81899
O          9.60014         9.06153         2.88942
O          4.79349        16.94924        -2.61636
O         18.02365        14.03202        -0.57672
O         11.86261        10.60248         3.05829
O         11.57527        15.82006        -1.74768
O          3.42058         8.61538        -1.62804
O         16.97721        18.24252         0.86906
O         17.93717         3.38773         2.02082
O          4.50784        13.29329        -1.62803
O          7.83866         3.43991         1.27632
O          9.79260        12.89211         2.91296
H          9.43243        13.76172         3.20285
O         10.77805        11.51567        -0.30299
H         10.26915        12.16868        -0.83262
O         21.66688         5.73810        -1.57753
H         21.82363         6.63785        -1.93266
O          6.78838         7.95528        -1.15981
H          6.74994         8.87974        -1.48411
O          6.84334        14.12865        -1.73508
H          6.10104        13.63774        -2.19846
O         27.13675        18.04943         1.76102
H         27.99054        18.53777         1.82535
O         21.02293        15.64379         2.59756
H         20.85725        14.87205         3.18828
O         28.20194         2.00127         0.57876
H         28.96669         2.47618         0.96861
O         18.77057        16.75921         1.86639
H         18.35212        17.63946         2.01267
O          6.44967        14.71574         1.84691
H          7.12283        14.89332         2.54086
O         16.92964        13.46208         2.86653
H         17.10800        12.75094         3.52180
O         20.08900        13.14204         3.13947
H         19.88354        12.29944         3.61022
O         26.82884         4.92164        -2.47476
H         26.88365         4.13245        -3.05486
O         19.59630        16.18522        -1.63610
H         20.34185        16.47443        -2.20312
O         20.21155        11.22273        -0.85724
H         20.96960        11.39138        -1.46434
O         22.43731         4.28091         1.68013
H         22.48344         3.35765         2.00462
O         30.76635         4.07150        -3.03591
H         30.81007         5.04902        -3.10360
O         14.69945         8.29870        -0.40653
H         14.02371         8.89763        -0.79083
O         17.12677         0.19080        -0.78000
H         17.11891         0.56906        -1.68272
O         14.94087        13.53349        -1.15862
H         14.80273        14.30263        -1.75359
O          5.60299         6.37519         1.90627
H          5.61951         5.43944         2.19926
O         24.53947        17.17656        -2.15448
H         25.40469        16.73663        -2.30157
O         26.85069        12.93053        -1.14583
H         26.94414        12.01557        -1.49169
O          2.70368         7.78319         1.55444
H          3.22800         8.35462         2.15280
O         12.46782         4.99994        -1.61377
H         11.64137         5.47696        -1.84329
H          0.47518         1.96770        -2.45310
H          0.38604         4.34527        -1.82235
H          2.60263         0.67841        -2.27480
H          0.34530         6.15299        -1.17455
H          0.33632         8.54397        -0.67323
H          0.01198        10.33594         0.52151
H          0.15182        12.75997         0.30741
H          0.30334        14.73278         0.68496
H          0.39425        17.09733        -0.02329
H          1.64146        19.00787        -0.93928
H          4.99509         0.60739        -1.75672
H          3.65275        20.00129        -1.92026
H          7.40242         0.58127        -1.48204
H          6.20340        19.27776        -3.22324
H          9.90358         0.63349        -1.47039
H          8.94139        19.62181        -2.61459
H         12.35596         0.64653        -1.25625
H         11.09666        19.67033        -2.11044
H         14.75938         0.51150        -0.75083
H         13.56000        19.74603        -1.86461
H         17.16909         0.79257         1.18289
H         15.98710        19.70674        -1.88062
H         19.54780         0.49519        -0.91670
H         18.51227        20.00622        -1.32393
H         21.98026         0.52901        -1.18498
H         20.98432        20.02611        -1.22429
H         24.46935         0.52927        -1.51346
H         23.46410        19.88759        -1.40568
H         26.96067         0.54420        -1.69513
H         25.98487        19.58615        -1.88579
H         29.54086         0.44535        -1.36504
H         28.30388        19.46714        -2.10857
H         31.58231         1.69238        -1.82079
H         32.88482         3.76039        -0.97234
H         32.91219         6.10467        -0.30484
H         32.97525         8.06242        -0.32115
H         33.01145        10.44038         0.13647
H         33.02621        12.30740         0.37437
H         33.05206        14.73927         0.37541
H         33.02626        16.69280         0.04110
H         31.03239        19.90453        -1.87029
H         32.99967        18.77628        -1.02748
