         349
 CSIRO Nanostructure Databank - Neutral Graphene Oxide Data Set
C          1.37192         1.85170         1.43037
C          1.21997         3.02703         0.66054
C          2.62974         1.32002         1.59115
C          2.33426         3.72196         0.20675
C          2.37765         6.16845        -2.46574
C          2.78484         7.44966        -2.87333
C          2.77640         5.65403        -1.23385
C          3.40389         8.32118        -1.97570
C          2.75427        10.33289        -3.28254
C          2.78896        11.69834        -3.52226
C          3.43316         9.72196        -2.20430
C          3.53403        12.60554        -2.72700
C          3.20774        14.50794        -4.33464
C          3.29224        15.82767        -4.62938
C          3.68582        13.95916        -3.07737
C          3.75853        16.81615        -3.59417
C          4.28697        18.11968        -4.14631
C          3.78549         2.02205         1.12476
C          3.67281         3.33846         0.54678
C          5.03936         1.39575         1.16935
C          4.85344         4.14294         0.39807
C          3.85550         6.29263        -0.48484
C          3.80719         7.82159        -0.58930
C          4.81940         5.60607         0.21267
C          5.06331         8.51759        -0.11010
C          4.10450        10.58880        -1.21457
C          4.18206        12.07735        -1.49711
C          5.15792         9.95377        -0.36700
C          5.21532        12.89467        -0.81877
C          4.47642        14.82925        -2.23461
C          4.67552        16.14876        -2.60226
C          5.20913        14.26363        -1.09071
C          5.72795        16.94973        -1.95117
C          5.25236        18.84629        -3.56345
C          6.05288        18.32946        -2.41725
C          6.19755         2.09550         0.78993
C          6.11474         3.51809         0.56958
C          7.43982         1.42495         0.69263
C          7.35529         4.25449         0.53965
C          5.94365         6.35914         0.90781
C          6.01925         7.84105         0.59488
C          7.31177         5.70637         0.70852
C          7.16004         8.56753         1.19635
C          6.22563        10.69150         0.06585
C          6.45217        12.15347        -0.29898
C          7.28085        10.03541         0.87356
C          7.40282        12.82062         0.71179
C          5.82821        15.21694        -0.21958
C          6.09869        16.53821        -0.58300
C          7.31848        14.15144         1.11893
C          6.91478        17.39963         0.18217
C          6.70395        19.31698        -1.44705
C          7.45072        18.61312        -0.31369
C          8.63020         2.14061         0.50612
C          8.57359         3.57856         0.52395
C          9.86707         1.46767         0.29072
C          9.86477         4.36210         0.56652
C          8.44890         6.38458         1.05993
C          8.36444         7.75937         1.68721
C          9.66725         5.57540         1.52483
C          9.68920         8.52185         1.64360
C          8.66252        10.64728         0.79405
C          8.60483        12.12895         1.05248
C          9.73555         9.90953         1.55313
C          9.72688        12.79158         1.57141
C          8.47507        14.91123         1.46289
C          8.48414        16.33395         1.43077
C          9.71687        14.22818         1.62593
C          9.66751        17.07040         1.29231
C          8.62743        19.15852         0.20036
C          9.68715        18.48206         0.90583
C         11.10949         2.13777         0.35064
C         11.03365         3.48740         1.01587
C         12.26632         1.48688        -0.07841
C         12.15694         4.18698         1.76905
C         10.94565         6.36759         1.64982
C         10.92232         7.77684         1.79369
C         12.15751         5.67178         1.77882
C         12.15337         8.45077         1.99339
C         10.91528        10.64874         1.90284
C         10.93786        12.05586         1.90029
C         12.10440         9.88450         2.29980
C         12.16637        12.78216         2.12776
C         10.90042        14.98163         1.76953
C         10.90388        16.37188         1.52112
C         12.16470        14.30824         2.24784
C         12.15357        17.10049         1.45123
C         10.90240        19.17120         0.98676
C         12.14605        18.52003         1.24266
C         13.60279         2.06650        -0.06862
C         13.46113         3.54128         2.03289
C         14.59904         1.39285         0.58760
C         14.67133         4.17072         1.71494
C         13.40356         6.34816         1.80711
C         13.39574         7.76942         1.92900
C         14.65624         5.62347         1.64442
C         14.64027         8.50868         1.86951
C         13.43652        10.64600         2.37695
C         13.37182        12.10877         2.21171
C         14.65698         9.89931         2.00937
C         14.67121        12.81942         2.24063
C         13.36806        14.90258         1.49420
C         13.38387        16.41805         1.48976
C         14.67951        14.30713         1.96071
C         14.59947        17.11595         1.34180
C         13.36628        19.22075         1.14982
C         14.60821        18.54561         1.19571
C         15.87078         1.92872         1.23685
C         15.90133         3.44858         1.42925
C         17.06062         1.37443         0.49078
C         17.08032         4.14806         1.27123
C         15.85356         6.32708         1.48272
C         15.86938         7.78600         1.53717
C         17.10435         5.60689         1.28851
C         17.01839         8.48527         1.22199
C         15.84408        10.66523         1.72225
C         15.87437        12.02446         1.93485
C         16.98902         9.97541         0.99594
C         17.08449        12.76005         1.50220
C         15.89191        15.01792         1.53502
C         15.86346        16.41057         1.32075
C         17.10535        14.23316         1.29558
C         17.07694        17.13875         1.18567
C         15.85065        19.23367         1.07430
C         17.08568        18.55514         1.10734
C         18.24092         2.04313         0.39365
C         18.34049         3.40140         0.97757
C         19.45239         1.42154        -0.08300
C         19.63098         4.13587         0.77176
C         18.27559         6.31119         1.04708
C         18.18278         7.75578         0.60068
C         19.58618         5.62456         0.96939
C         19.51232         8.55494         0.65125
C         18.32826        10.63092         1.25622
C         18.36231        12.01285         1.66411
C         19.59540         9.85417         1.42439
C         19.68227        12.73951         1.76815
C         18.42978        14.95799         1.08361
C         18.35230        16.43013         1.57079
C         19.65078        14.24632         1.71564
C         19.60029        17.17340         1.12359
C         18.35177        19.28335         1.09597
C         19.57656        18.65726         1.12958
C         20.65296         2.08578        -0.27568
C         20.72812         3.53106        -0.04417
C         21.85948         1.27672        -0.50991
C         21.82283         4.32840        -0.38506
C         20.80960         6.38733         0.61003
C         20.80545         7.86101         0.47460
C         21.97497         5.69374         0.04741
C         22.11965         8.52833         0.65339
C         20.88519        10.65053         1.15028
C         20.91842        12.00898         1.38309
C         22.12947         9.95162         0.84733
C         22.20450        12.74964         1.35025
C         20.93609        15.00659         1.66884
C         20.89181        16.44334         1.21922
C         22.24548        14.27150         1.51346
C         22.17793        17.21542         1.48407
C         20.85686        19.33238         1.02027
C         22.06165        18.66931         1.04267
C         22.92077         1.70862        -1.26114
C         22.92675         3.88671        -1.21470
C         24.30164         1.30065        -1.24556
C         24.19076         4.36628        -1.13415
C         23.17262         6.38150        -0.05105
C         23.25041         7.78281         0.30551
C         24.45054         5.59316        -0.29419
C         24.55815         8.45394         0.18989
C         23.32618        10.67904         0.64542
C         23.37616        12.09941         0.73881
C         24.58518         9.97867         0.34837
C         24.52596        12.84900         0.39630
C         23.36751        14.97985         0.87238
C         23.24111        16.43679         0.67844
C         24.49880        14.29766         0.41771
C         24.47507        17.22706         0.29503
C         23.34800        19.33896         0.94954
C         24.50572        18.65513         0.70775
C         25.37890         2.13532        -1.52865
C         25.29747         3.63819        -1.88273
C         26.67106         1.52351        -1.56492
C         26.62602         4.36498        -1.73460
C         25.55559         6.43869        -0.88543
C         25.60696         7.78139        -0.61057
C         26.67300         5.75260        -1.49853
C         26.73977         8.58381        -1.11340
C         25.68938        10.77640        -0.21027
C         25.68853        12.16094        -0.13854
C         26.78272        10.07317        -0.90621
C         26.85413        12.92108        -0.61030
C         25.67168        15.04815        -0.04689
C         25.68736        16.45488         0.02461
C         26.82348        14.33787        -0.53695
C         26.90311        17.23539        -0.24620
C         25.83555        19.29454         1.02080
C         26.98695        18.70843         0.23264
C         27.83981         2.21599        -1.83813
C         27.83315         3.65534        -1.93914
C         29.11407         1.51700        -1.88287
C         29.06219         4.36401        -2.11436
C         27.92308         6.47604        -1.63818
C         27.98002         7.85240        -1.40559
C         29.10125         5.74603        -2.01840
C         29.29228         8.56061        -1.20851
C         28.06614        10.79604        -1.06786
C         28.02279        12.21803        -1.03709
C         29.23530        10.07188        -1.36423
C         29.20423        12.92049        -1.69813
C         28.01633        15.12473        -0.94764
C         28.15143        16.52775        -0.49281
C         29.25418        14.42879        -1.44572
C         29.36341        17.20819        -0.53249
C         28.32508        19.23017         0.44897
C         29.44607        18.57836        -0.04280
C         30.27671         2.15493        -2.12523
C         30.33428         3.61850        -2.47240
C         31.52974         4.32136        -1.86638
C         30.39269         6.46090        -2.36608
C         30.43528         7.91573        -1.95422
C         31.55462         5.65682        -1.79802
C         31.55519         8.64900        -2.22207
C         30.48269        10.75520        -1.56589
C         30.50740        12.20750        -1.42475
C         31.61876        10.04651        -1.93870
C         31.65970        12.89548        -1.17302
C         30.55948        15.09381        -1.17753
C         30.59210        16.52432        -0.88988
C         31.68689        14.32064        -1.04130
C         31.78980        17.22613        -0.87556
C         30.73166        19.21868         0.01269
C         31.85550        18.57423        -0.43552
O          9.31537         5.19900         2.82687
O          6.80934         9.60636         2.17547
O         20.55046         6.03579         2.02486
O          2.03658         4.60855        -0.81463
O         25.05047         9.06263         1.42785
O         19.04146        12.22986         2.99308
O         11.09710         3.44668         2.47288
O          6.08243        14.81698         1.09053
O         26.66505        18.39035        -1.14128
O         16.87975        13.28885         0.13723
O         23.39315        16.89900        -0.67081
O         12.73023        10.20958         3.58000
O         22.66397         2.82379        -2.09743
O         22.48265        17.18019         2.83150
O         20.31052        16.67208        -0.07582
O         14.77706        13.80367         3.34831
O          6.92906        17.22469        -2.81625
O         20.24254        14.79994         2.93490
O         19.35725         3.43704         2.03689
O         20.13227         8.52832        -0.67563
O         22.55924        13.40534         2.62834
O         26.31418         9.51924        -2.21471
O          3.21478        11.51618        -0.51190
O          7.25163        17.01061         1.48552
O         28.36950        15.09466        -2.40479
O         19.66566         9.46417         2.83322
H         19.59743        10.29693         3.36027
O         26.12345        19.06926         2.41248
H         25.29232        19.15539         2.92522
O          2.55094        17.20585        -2.83385
H          2.09552        16.37965        -2.56387
O         30.53001         6.45604        -3.81314
H         30.58929         5.50831        -4.09867
O          9.07841        10.45290        -0.62047
H          9.97973        10.83097        -0.71421
O         10.19285         4.86495        -0.75359
H          9.40328         5.32970        -1.10332
O         29.60110         8.35779         0.23712
H         30.47352         8.77500         0.40614
O         18.28537        16.47119         3.01403
H         19.11266        16.07090         3.38527
O         18.66540        14.96309        -0.33456
H         18.13188        14.23356        -0.73146
O         15.94209         1.32273         2.55631
H         15.15778         1.62896         3.06344
O         24.99697         3.69295        -3.30754
H         24.09578         3.30723        -3.41238
O         28.97062        12.72992        -3.12442
H         28.41807        13.49281        -3.41877
O         13.77347         3.29775        -0.64038
H         12.94471         3.57174        -1.08191
O         12.25742        14.64158         3.64842
H         13.10900        14.27141         3.98936
O          8.10242         7.49015         3.09610
H          8.61465         6.64839         3.32177
O          5.66186         6.26265         2.33079
H          6.42944         6.67321         2.81354
O         17.80804         7.68560        -0.83501
H         18.65448         7.78494        -1.34141
O         13.36676         2.36996         2.68645
H         12.39614         2.25082         2.88141
O         24.92084         5.14657         1.01586
H         24.97823         5.93216         1.60069
O         16.67571        10.15195        -0.43792
H         17.01850         9.34451        -0.90365
O          2.73648         8.24920         0.30145
H          3.07371         8.21365         1.22166
O          7.22242        12.14409        -1.55326
H          7.96080        11.48503        -1.44758
O          5.69262        20.17664        -0.90061
H          5.09132        19.64684        -0.33813
O         30.49763         3.69224        -3.93411
H         29.70940         3.27034        -4.33801
O         13.21100        14.48386         0.10699
H         13.96395        14.84100        -0.41028
H          0.48398         1.32489         1.80389
H          0.22126         3.37006         0.36173
H          2.77095         0.34665         2.08058
H          1.67343         5.59446        -3.08136
H          2.48412         7.79945        -3.87018
H          2.16659         9.71023        -3.97048
H          2.21973        12.08251        -4.37956
H          2.79250        13.82067        -5.08556
H          2.91784        16.20528        -5.59255
H          3.74639        18.53510        -5.01120
H          5.11592         0.35127         1.50384
H          5.52396        19.83291        -3.96981
H          7.46912         0.33150         0.80541
H          7.41166        19.97611        -2.00921
H          9.84844         0.40437         0.00781
H          8.89858        20.16101        -0.17258
H         12.18525         0.40396        -0.26676
H         10.92558        20.23742         0.71244
H         14.31688         0.39424         0.95691
H         13.34919        20.30949         0.99160
H         16.98245         0.34021         0.12204
H         15.83941        20.33142         0.99781
H         19.41652         0.33791        -0.27414
H         18.30364        20.38246         1.05523
H         21.93864         0.33105         0.04807
H         20.84496        20.42223         0.85312
H         24.52900         0.27004        -0.92531
H         23.40125        20.42002         1.16491
H         26.73056         0.43607        -1.39746
H         25.77566        20.40674         0.82969
H         29.10725         0.43329        -1.68925
H         28.44231        20.15720         1.02920
H         31.22098         1.59052        -2.15581
H         32.37347         3.71444        -1.50384
H         32.42582         6.18633        -1.38254
H         32.41592         8.17252        -2.71304
H         32.55720        10.58093        -2.13951
H         32.60278        12.35105        -1.02034
H         32.64713        14.78677        -0.78281
H         32.72031        16.73711        -1.19482
H         30.78840        20.25256         0.38188
H         32.82749        19.08669        -0.43119
