         429
 CSIRO Nanostructure Databank - Neutral Graphene Oxide Data Set
C          1.19100         2.12239         1.31094
C          1.17146         3.51714         1.12122
C          2.38812         1.43856         1.41044
C          2.35782         4.25689         1.04333
C          1.28029         6.28903         0.09847
C          1.29647         7.66725        -0.30272
C          2.32374         5.69797         0.76839
C          2.35778         8.50039        -0.06566
C          1.19237        10.62607        -0.63825
C          1.17699        12.04608        -0.77721
C          2.36409         9.91617        -0.42176
C          2.33433        12.79095        -0.85206
C          1.15186        14.99207        -1.05337
C          1.16228        16.37975        -1.06583
C          2.34500        14.24720        -0.89850
C          2.36214        17.09434        -0.85068
C          2.38967        18.54381        -0.87538
C          3.62474         2.14310         1.34690
C          3.60630         3.56703         1.18158
C          4.85823         1.45626         1.44301
C          4.85418         4.26311         1.14442
C          3.53573         6.50784         1.04294
C          3.53697         8.02005         0.75456
C          4.83231         5.75637         1.12449
C          4.85860         8.57659         0.22523
C          3.63338        10.62945        -0.45425
C          3.63383        12.03741        -1.03945
C          4.81565         9.98109        -0.18213
C          4.86140        12.84295        -0.68575
C          3.56895        14.96460        -0.73659
C          3.56019        16.37282        -0.66038
C          4.83492        14.24840        -0.64643
C          4.79014        17.12212        -0.20743
C          3.55724        19.24490        -0.79663
C          4.82445        18.57938        -0.60799
C          6.08792         2.14322         1.39564
C          6.05870         3.57534         1.26745
C          7.33536         1.45180         1.46654
C          7.35311         4.33740         1.41799
C          6.05083         6.42431         0.57301
C          6.04160         7.88762         0.28391
C          7.31615         5.63578         0.64094
C          7.39936         8.56787         0.09966
C          6.12840        10.71884        -0.12544
C          6.08525        12.15641        -0.57979
C          7.26121         9.88064        -0.76565
C          7.30327        12.85985        -0.58746
C          6.06337        14.98235        -0.56864
C          6.07673        16.40212        -0.50327
C          7.30808        14.28279        -0.62647
C          7.28360        17.11582        -0.54020
C          6.02032        19.25187        -0.64130
C          7.29370        18.56527        -0.54688
C          8.57956         2.11253         1.27887
C          8.59460         3.52441         1.10632
C          9.82201         1.40563         1.19828
C          9.79885         4.18073         0.79268
C          8.60122         6.32854         0.43496
C          8.53197         7.59095        -0.23743
C          9.78298         5.60271         0.52372
C          9.69870         8.02645        -0.83563
C          8.52470        10.73181        -0.90723
C          8.54578        12.13185        -0.70899
C          9.74134        10.14748        -1.34717
C          9.76538        12.84794        -0.82812
C          8.53834        14.99077        -0.66498
C          8.53578        16.41846        -0.63054
C          9.77472        14.25759        -0.74042
C          9.74705        17.14617        -0.68859
C          8.50171        19.25015        -0.53346
C          9.76460        18.56594        -0.56004
C         11.02591         2.05702         0.93933
C         11.03171         3.46147         0.71439
C         12.30674         1.24480         0.81459
C         12.27236         4.15309         0.40669
C         11.05112         6.30505         0.35464
C         11.01590         7.69175        -0.36452
C         12.27640         5.53476         0.19959
C         12.26721         8.39102        -0.79041
C         11.00094        10.67261        -1.11772
C         11.05590        12.17280        -1.22976
C         12.25415         9.86782        -1.11787
C         12.28606        12.84447        -0.68874
C         11.01571        14.95612        -0.75118
C         11.00485        16.41492        -0.87309
C         12.25156        14.26973        -0.60177
C         12.31685        17.16986        -0.65804
C         10.99318        19.26216        -0.40159
C         12.24760        18.61118        -0.33249
C         13.58474         2.06266         0.74536
C         13.52496         3.43553         0.47947
C         14.83256         1.39598         0.84040
C         14.77226         4.22151         0.46317
C         13.45051         6.25137        -0.31844
C         13.43475         7.72614        -0.53176
C         14.77058         5.55540        -0.19616
C         14.70059         8.44211        -0.22042
C         13.51477        10.65226        -0.82972
C         13.48786        12.12262        -0.57635
C         14.69800         9.93517        -0.25154
C         14.68319        12.76919        -0.18657
C         13.44591        14.99070        -0.26834
C         13.49829        16.39056        -0.24288
C         14.61820        14.20172         0.14018
C         14.70736        17.11050         0.02357
C         13.45894        19.26379        -0.06122
C         14.70261        18.55782         0.00645
C         16.07020         2.04332         0.65184
C         16.11139         3.50508         0.52289
C         17.31771         1.38693         0.63681
C         17.31984         4.15745        -0.02053
C         16.03441         6.32347        -0.16839
C         16.00346         7.73098        -0.20050
C         17.26146         5.60758        -0.19166
C         17.20394         8.47869        -0.14201
C         15.98257        10.66852        -0.20413
C         15.94076        12.08082        -0.09473
C         17.19636         9.94461        -0.09980
C         17.17109        12.80723         0.08139
C         15.93048        14.96088         0.35389
C         15.93205        16.41953         0.17735
C         17.18968        14.22022         0.20056
C         17.16777        17.10612         0.18531
C         15.93162        19.23713         0.08060
C         17.17216        18.54460         0.13073
C         18.53962         2.02639         0.31942
C         18.51264         3.42682        -0.15174
C         19.71775         1.25855         0.62161
C         19.71401         4.15784        -0.52686
C         18.44477         6.36012        -0.33638
C         18.43588         7.76980        -0.22572
C         19.67480         5.64903        -0.81541
C         19.69180         8.49128        -0.19465
C         18.40353        10.66354         0.02510
C         18.41160        12.08673         0.09317
C         19.67834         9.91640         0.30501
C         19.64402        12.80854         0.18982
C         18.40158        14.94388         0.24584
C         18.40301        16.38085         0.27240
C         19.64801        14.23667         0.28424
C         19.63212        17.08291         0.33141
C         18.41305        19.22021         0.13364
C         19.63696        18.51746         0.22972
C         21.00158         1.42528         0.08184
C         20.94028         3.57322        -0.77037
C         22.21538         0.84512         0.52060
C         22.18422         4.28738        -0.55303
C         20.93835         6.38367        -0.45871
C         20.88644         7.80725        -0.30730
C         22.13978         5.71207        -0.30687
C         22.18443         8.51987        -0.33680
C         20.90267        10.72051        -0.04450
C         20.89034        12.08349         0.05403
C         22.18309        10.00790        -0.25279
C         22.17530        12.87504        -0.09018
C         20.85665        14.96130         0.46789
C         20.87564        16.38114         0.49547
C         22.08932        14.14635         0.75891
C         22.10833        17.11674         0.65150
C         20.88318        19.18855         0.17781
C         22.12177        18.54164         0.38624
C         23.48004         1.30320         0.05192
C         23.35091         3.57789        -0.35162
C         24.77973         0.95155         0.37564
C         24.54622         4.11336         0.33984
C         23.36973         6.39347         0.03154
C         23.40619         7.76945         0.03114
C         24.48156         5.61908         0.70952
C         24.61556         8.50179         0.33829
C         23.42038        10.69638         0.17019
C         23.41089        12.07835         0.29586
C         24.58639         9.90853         0.42490
C         24.61913        12.79497         0.62624
C         23.35890        14.94105         0.68761
C         23.32333        16.34735         0.83524
C         24.59249        14.25518         0.72294
C         24.56076        16.97386         1.13068
C         23.30939        19.33876         0.13662
C         24.57327        19.05818         0.67147
C         25.89874         1.81475         0.01322
C         25.85244         3.29559         0.30568
C         27.11697         1.24373        -0.27185
C         27.11773         4.07551         0.15354
C         25.84090         6.31701         0.63377
C         25.84983         7.77635         0.44611
C         27.14590         5.54238         0.40294
C         27.08692         8.43613         0.29713
C         25.80445        10.62452         0.79382
C         25.79944        12.08962         0.79429
C         27.13342         9.87698         0.59317
C         27.09545        12.75788         1.00298
C         25.80520        14.97580         0.77410
C         25.81926        16.39301         0.88132
C         27.08611        14.26754         0.93339
C         27.04441        17.18823         0.80666
C         25.88237        19.41416         0.29513
C         27.05308        18.63031         0.61457
C         28.31957         2.00555        -0.44995
C         28.28394         3.44991        -0.26201
C         29.51134         1.36266        -0.73437
C         29.50655         4.20481        -0.49604
C         28.31766         6.32724        -0.08489
C         28.27218         7.73951        -0.06407
C         29.48026         5.61768        -0.47701
C         29.36435         8.58573        -0.70157
C         28.33440        10.68754         0.30008
C         28.32441        12.03429         0.59875
C         29.53399         9.97996        -0.09964
C         29.58750        12.80389         0.55282
C         28.26375        15.00912         0.36128
C         28.27730        16.49419         0.68234
C         29.57585        14.29607         0.57884
C         29.51461        17.15915         0.60539
C         28.31068        19.27649         0.50523
C         29.54844        18.59750         0.56755
C         30.74723         2.07897        -0.83642
C         30.72953         3.50946        -0.76124
C         31.96334         1.39475        -0.96674
C         31.97950         4.21674        -0.85226
C         30.66993         6.33375        -1.07987
C         30.69259         7.85328        -0.87499
C         31.98626         5.64871        -0.76722
C         31.97258         8.55891        -0.56255
C         30.74576        10.66208        -0.12785
C         30.71184        12.16289        -0.22245
C         32.00486        10.00103        -0.22365
C         32.03960        12.85295        -0.08531
C         30.79059        15.06405         0.23323
C         30.75625        16.42162         0.42971
C         32.02668        14.35508        -0.27275
C         32.02273        17.16331         0.64495
C         30.79330        19.29542         0.47852
C         32.04052        18.63594         0.51848
C         33.20476         2.08720        -0.98172
C         33.19744         3.51483        -0.93857
C         34.43305         1.38202        -1.01406
C         34.48655         4.26956        -1.11594
C         33.19557         6.33279        -0.52489
C         33.17286         7.77110        -0.18332
C         34.44233         5.67383        -0.55862
C         34.46293         8.52296         0.02811
C         33.22377        10.69554        -0.18687
C         33.20742        12.15767        -0.18731
C         34.49016        10.00152        -0.17187
C         34.46996        12.89863        -0.57796
C         33.31582        14.98671         0.16810
C         33.32683        16.40231         0.55284
C         34.50318        14.32597        -0.07023
C         34.56957        17.15533         0.38936
C         33.28657        19.28430         0.52737
C         34.53911        18.58154         0.50635
C         35.68171         2.04168        -0.86663
C         35.70826         3.46680        -0.74480
C         36.90969         1.33329        -0.93402
C         36.92005         4.13187        -0.54818
C         35.67274         6.38432        -0.37372
C         35.70657         7.75106        -0.10480
C         36.94427         5.63426        -0.77813
C         36.97897         8.51611         0.21402
C         35.71025        10.68237        -0.26320
C         35.75451        12.13740        -0.33959
C         36.97368         9.97926        -0.18252
C         36.94615        12.81225        -0.31627
C         35.74009        15.03368        -0.04250
C         35.77263        16.44118         0.17244
C         36.97308        14.29527        -0.34343
C         37.02899        17.14051         0.29124
C         35.77424        19.26249         0.56291
C         37.00929        18.56026         0.54207
C         38.13350         2.01714        -0.87322
C         38.13596         3.41015        -0.59027
C         39.39282         1.35790        -1.17116
C         39.43715         4.09658        -0.44919
C         38.14011         6.30266        -0.02915
C         38.18173         7.79708        -0.43506
C         39.47174         5.58581        -0.18704
C         39.48324         8.49263        -0.13002
C         38.18913        10.62939        -0.20377
C         38.26916        12.10146        -0.54264
C         39.44799         9.90346        -0.04205
C         39.46882        12.80697         0.07667
C         38.28942        15.01486        -0.11424
C         38.24452        16.43380         0.29902
C         39.49048        14.21203         0.21567
C         39.45535        17.08856         0.64900
C         38.23341        19.22390         0.76602
C         39.44594        18.50978         0.85216
C         40.55933         2.05435        -1.31297
C         40.63882         3.46262        -1.01555
C         41.78164         4.22597        -1.16985
C         40.70238         6.34227        -0.49460
C         40.70152         7.78942        -0.25147
C         41.81087         5.63021        -0.91080
C         41.90284         8.52076        -0.11208
C         40.66407        10.61149         0.14175
C         40.63849        12.06084         0.35409
C         41.87638         9.89109         0.11719
C         41.77321        12.73478         0.85174
C         40.65125        14.88592         0.67652
C         40.67219        16.34846         0.79767
C         41.77970        14.11138         1.01338
C         41.84734        17.04872         1.08336
C         40.67406        19.17301         1.14160
C         41.84542        18.45012         1.24203
O         37.76238        14.82316        -1.48877
O         27.22463        13.60277         2.21149
O         26.57378        10.10318         1.92958
O          9.62375         8.87445        -1.93521
O         11.83461        16.88158        -2.00634
O         37.00664         5.69673        -2.19366
O         21.04947         2.21772        -1.07651
O          4.21334         6.28333         2.34001
O         32.67418        16.68378         1.87364
O         39.68582         4.63083         0.92042
O          6.51925         5.61575        -0.58761
O         31.51338         8.41825        -1.96939
O         15.11470        14.51320         1.49057
O         15.53916         4.20241         1.70087
O         29.84399        13.51931         1.80078
O         11.09148         7.55176         1.10619
O         23.43285         2.32894        -0.92702
O         22.32219         9.34892        -1.57103
O         24.52433        18.19040         1.79267
O         33.61355         8.08925         1.17197
O         13.19385        10.24852        -2.20852
O         26.70291         5.91478         1.75412
O         14.08088         5.54951        -1.48697
O         14.44842         9.24220         1.02019
O         25.05396         3.43143         1.53700
O         19.73412         9.77020         1.77927
H         19.64553        10.66618         2.17035
O         30.50251         6.12387        -2.51820
H         31.12800         6.74025        -2.96427
O          3.36989         8.68812         2.04146
H          3.82366         8.12038         2.70803
O          3.74192        11.84317        -2.49686
H          2.97409        11.29991        -2.77497
O         37.06825         8.59687         1.65854
H         37.15954         7.67623         2.00616
O          6.82675         9.49840        -2.07985
H          7.59024         9.08365        -2.53982
O         24.08524         5.67082         2.10230
H         24.82574         5.27203         2.61492
O          6.40824        10.88324         1.29582
H          5.60553        11.25512         1.71704
O         38.07093         7.97253        -1.85878
H         37.63840         7.16394        -2.27394
O         21.96295        13.67445         2.13881
H         22.00055        14.45348         2.73271
O         30.30990        12.41376        -1.61980
H         31.04136        12.11644        -2.20198
O          7.84591         8.97827         1.41703
H          7.91349         8.18516         1.98898
O          4.68844        17.13545         1.26915
H          5.45433        17.64772         1.60635
O         37.78288         6.17473         1.36862
H         38.35748         5.45513         1.73732
O         34.63369         4.50497        -2.56556
H         35.53270         4.96385        -2.66586
O         34.34984        13.01760        -2.05058
H         35.22001        13.31573        -2.39607
O         12.39040         0.27921         1.87083
H         12.52027         0.75985         2.71383
O         19.58412         5.74277        -2.29404
H         18.75091         5.30176        -2.56546
O          7.46274         4.73845         2.82312
H          7.48203         3.92307         3.36719
O         11.17197        12.39171        -2.70173
H         11.92833        11.83285        -3.00005
O         22.32244        13.28084        -1.47189
H         22.36529        12.47221        -2.02477
O         28.85756         8.85649        -2.04411
H         29.64056         9.07178        -2.60009
O         32.01050        14.58886        -1.73243
H         32.78535        14.09282        -2.10496
O         38.47754        12.18290        -1.99304
H         38.44833        13.14422        -2.22069
O         28.04613        14.94822        -1.08679
H         28.85635        15.27595        -1.53360
H          0.23943         1.57599         1.37190
H          0.20172         4.02845         1.04592
H          2.39823         0.34743         1.54423
H          0.40517         5.68936        -0.18898
H          0.42347         8.03928        -0.85898
H          0.22451        10.10829        -0.58061
H          0.19571        12.54173        -0.75540
H          0.19577        14.46984        -1.19583
H          0.22493        16.93328        -1.22147
H          1.43849        19.07564        -1.02601
H          4.85378         0.36184         1.55677
H          3.55317        20.34006        -0.90601
H          7.32400         0.35798         1.58451
H          6.02937        20.33988        -0.81257
H          9.82455         0.31542         1.34505
H          8.49868        20.35052        -0.51373
H         12.23367         0.65012        -0.14042
H         10.95865        20.35112        -0.24441
H         14.82526         0.30806         1.00510
H         13.46636        20.35706         0.06620
H         17.34656         0.31690         0.89461
H         15.93846        20.33751         0.06924
H         19.57809         0.43319         1.33815
H         18.42968        20.31840         0.06661
H         22.18983         0.12541         1.35072
H         20.88333        20.27288        -0.01050
H         24.99818         0.00775         0.89714
H         23.19219        20.19808        -0.54111
H         27.18523         0.15009        -0.37096
H         26.03580        20.30762        -0.32935
H         29.52427         0.26764        -0.83757
H         28.32185        20.36764         0.36144
H         31.96285         0.29577        -1.01326
H         30.77317        20.39394         0.41079
H         34.41556         0.28729        -1.12705
H         33.31379        20.38452         0.52635
H         36.89560         0.24837        -1.11487
H         35.78506        20.35525         0.68882
H         39.37169         0.27774        -1.37806
H         38.23710        20.31247         0.92503
H         41.47542         1.53492        -1.63161
H         42.69885         3.74868        -1.54555
H         42.75366         6.16070        -1.10755
H         42.87166         8.00554        -0.16965
H         42.83216        10.42037         0.23206
H         42.67450        12.16849         1.12151
H         42.68448        14.59231         1.40766
H         42.80201        16.51600         1.18631
H         40.67438        20.26272         1.28617
H         42.79167        18.96405         1.46145
