         349
 CSIRO Nanostructure Databank - Neutral Graphene Oxide Data Set
C          1.28101         3.65893         1.65073
C          0.14421         4.40649         1.78994
C          1.23545         6.42416         0.88278
C          0.08119         5.75392         1.34769
C          1.23987         7.85251         0.61805
C          0.01621         8.61892         0.58202
C          1.22911        10.75446         0.31575
C         -0.00671         9.96324         0.37275
C          1.20238        12.17599        -0.13592
C          0.04912        12.94323         0.07198
C          1.13238        14.89853        -0.88752
C          0.01297        14.27952        -0.30688
C          1.03354        16.31072        -1.37007
C         -0.15355        17.12582        -1.01747
C          1.00365        19.30227        -1.36327
C         -0.18125        18.47134        -1.05652
C          1.06035        20.69674        -0.84055
C         -0.12444        21.43417        -0.66523
C          1.11472        23.39215         0.09128
C         -0.09939        22.75334        -0.22542
C          1.16856        24.77140         0.58348
C         -0.05489        25.55900         0.67829
C          1.16586        27.58440         1.36385
C         -0.07631        26.85760         1.06187
C          1.22694        29.04788         1.15671
C          3.76526         3.61796         1.32209
C          2.45278         4.19549         0.88098
C          3.67844         6.37433         0.55452
C          2.45938         5.70268         0.79914
C          3.67361         7.76892         0.22651
C          2.44580         8.48814         0.29072
C          3.68412        10.55666        -0.48836
C          2.51293         9.95687         0.18662
C          3.55435        11.95101        -0.98309
C          2.35357        12.78724        -0.68129
C          3.54932        14.83286        -1.69126
C          2.32890        14.15950        -1.04458
C          3.59405        16.33220        -1.47128
C          2.32802        17.06180        -1.68290
C          3.54743        19.24192        -1.18195
C          2.31043        18.56618        -1.60634
C          3.54485        20.54735        -0.71301
C          2.30502        21.30724        -0.55607
C          3.54557        23.19503         0.46898
C          2.32330        22.65664        -0.07055
C          3.62713        24.56805         1.00264
C          2.37454        25.35572         0.92753
C          3.65676        27.50745         0.70173
C          2.44216        26.79810         1.28166
C          3.68136        29.00674         0.96408
C          2.40871        29.69963         1.03564
C          6.21491         3.68318         1.47020
C          4.94248         4.31788         1.22554
C          6.12224         6.42722         0.64304
C          4.92899         5.71229         0.78250
C          6.10423         7.73661         0.09378
C          4.88967         8.43319        -0.11537
C          6.10814        10.46535        -1.05083
C          4.84211         9.81053        -0.62015
C          6.13037        11.94719        -1.26857
C          4.83378        12.68740        -1.36122
C          6.03796        14.86263        -1.12776
C          4.84292        14.15319        -1.30510
C          6.02350        16.29039        -1.11059
C          4.79331        17.00374        -1.27164
C          6.09412        19.25358        -1.09365
C          4.81727        18.49898        -1.31834
C          6.06421        20.62231        -0.51485
C          4.77921        21.14748        -0.23079
C          6.46064        23.33580         0.70014
C          4.61878        22.31418         0.56227
C          6.30271        24.72404         0.72979
C          5.01895        25.33930         1.13888
C          6.17212        27.58888         0.54891
C          4.97477        26.88043         1.22060
C          6.16021        29.05979         0.91891
C          4.86690        29.69280         1.04583
C          8.66848         3.71189         1.51463
C          7.41763         4.36654         1.37268
C          8.66906         6.45748         0.72700
C          7.39036         5.87378         1.26716
C          8.66325         7.77137         0.23208
C          7.39451         8.35695        -0.25236
C          8.63279        10.56884        -0.54126
C          7.41095         9.78262        -0.73971
C          8.61146        11.98836        -0.67867
C          7.28037        12.70886        -0.63863
C          8.51960        14.85888        -1.02715
C          7.31871        14.17368        -0.99601
C          8.57204        16.29217        -0.99312
C          7.28804        16.98606        -0.81188
C          8.61194        19.17586        -0.97632
C          7.33292        18.49061        -0.75705
C          8.46306        20.66902        -1.27865
C          7.32571        21.30029        -0.43887
C          8.63275        23.45753        -0.34933
C          7.45143        22.66388        -0.06444
C          8.61316        24.88739        -0.10930
C          7.46494        25.49552         0.36215
C          8.67970        27.71890         0.46187
C          7.49239        26.90393         0.89684
C          8.63204        29.10128         0.79628
C          7.34533        29.73425         1.04985
C         11.12838         3.67610         1.39237
C          9.90022         4.36721         1.32001
C         11.09693         6.39980         0.53857
C          9.89534         5.76526         0.88291
C         11.10776         7.76373         0.12006
C          9.86534         8.46056        -0.01721
C         11.07982        10.57828        -0.30696
C          9.87845         9.87852        -0.34362
C         11.07044        12.07461        -0.23338
C          9.78953        12.71073        -0.68208
C         11.04852        14.89976        -0.89850
C          9.80967        14.11073        -1.24030
C         11.05636        16.28850        -0.97110
C          9.78044        17.00599        -1.00610
C         11.08816        19.19066        -1.29468
C          9.78131        18.45514        -1.04373
C         10.99253        20.57756        -0.62407
C          9.85465        21.42215        -1.24421
C         11.09594        23.48185        -0.42981
C          9.81526        22.79545        -0.62599
C         11.11746        24.98873        -0.40987
C          9.79047        25.71948        -0.60379
C         11.07310        27.83482         0.02208
C          9.85986        27.11369         0.00429
C         11.06780        29.15935         0.57338
C          9.83552        29.80308         0.86265
C         13.54033         3.52800         0.94992
C         12.36694         4.27233         1.04503
C         13.49078         6.23038        -0.08461
C         12.42715         5.78624         0.89253
C         13.47302         7.62128        -0.73660
C         12.31594         8.42181        -0.19720
C         13.58839        10.56514        -0.62481
C         12.39174         9.90130         0.02973
C         13.50348        11.99222        -0.90462
C         12.29751        12.72614        -0.80194
C         13.47229        14.83677        -1.23612
C         12.28131        14.13828        -0.92388
C         13.60875        16.26293        -0.70644
C         12.31254        17.03718        -0.89503
C         13.54379        19.15725        -0.62441
C         12.31936        18.41465        -0.86386
C         13.51439        20.55653        -0.50322
C         12.31402        21.31686        -0.63820
C         13.56242        23.46739        -0.68676
C         12.34739        22.71962        -0.60777
C         13.61742        24.85354        -0.82421
C         12.38695        25.71464        -0.77617
C         13.58415        27.99998        -0.13706
C         12.34799        27.25220        -0.49019
C         13.52796        29.25012         0.59566
C         12.27940        29.84751         0.84133
C         15.99769         3.60676         0.49950
C         14.72266         4.10432         0.34882
C         16.30635         6.41904        -0.59297
C         14.44838         5.33357        -0.40298
C         16.01714         7.82716        -0.42496
C         14.78876         8.41566        -0.62618
C         16.02622        10.52568        -1.39430
C         14.75394         9.86076        -0.82167
C         16.00958        12.04266        -1.12569
C         14.66265        12.67016        -1.34616
C         16.41846        15.13065        -1.40289
C         14.53261        14.02888        -1.65189
C         16.21379        16.46242        -0.97697
C         14.88917        17.08490        -0.94518
C         16.05206        19.22631        -0.49839
C         14.80564        18.43533        -0.63561
C         15.98181        20.58451         0.12111
C         14.68867        21.38545        -0.00674
C         16.13866        23.43240        -0.56485
C         14.83433        22.66185        -0.87976
C         16.11873        24.91913        -0.52293
C         14.91935        25.45241        -0.98821
C         16.06934        27.94843         0.14603
C         14.84309        27.56461        -0.50122
C         16.00799        29.31118         0.68148
C         14.73610        29.92640         0.85951
C         18.50511         3.60527         0.58238
C         17.28971         4.19808        -0.08473
C         18.28147         6.47484         0.88923
C         17.30238         5.72317         0.00595
C         18.39854         7.96218         0.45839
C         17.20684         8.65531        -0.12991
C         18.58098        10.56026        -1.00145
C         17.29682         9.91245        -0.84772
C         18.62225        12.10506        -1.03488
C         17.30122        12.81853        -0.94499
C         18.59665        14.93462        -0.40940
C         17.44707        14.31002        -0.95938
C         18.59364        16.35740        -0.27727
C         17.40169        17.08931        -0.52874
C         18.61246        19.22818         0.06972
C         17.40383        18.54863        -0.45555
C         18.57917        20.58427         0.26771
C         17.27915        21.28960         0.30699
C         18.53090        23.52831         0.35593
C         17.33163        22.74171        -0.00811
C         18.46479        24.96619         0.26629
C         17.28982        25.68465        -0.09571
C         18.41093        27.76648         0.83363
C         17.21343        27.12834         0.21711
C         18.42913        29.29510         1.05948
C         17.17960        30.02371         0.91116
C         19.58788         4.34336         0.97579
C         20.79721         6.51983         1.14489
C         19.60904         5.76834         0.95619
C         20.88555         7.85393         0.81319
C         19.76064         8.49130         0.09616
C         21.06649        10.64570        -0.51561
C         19.84403         9.82739        -0.61574
C         21.04050        12.00411        -0.45034
C         19.82976        12.78658        -0.53236
C         20.94330        14.87297         0.29216
C         19.79258        14.15534        -0.17701
C         20.94944        16.24057         0.42057
C         19.80386        17.05272         0.12795
C         21.01931        19.23111         0.54227
C         19.82394        18.46069         0.25635
C         21.00494        20.57369         0.74699
C         19.71858        21.34380         0.90133
C         20.97027        23.55681         0.43810
C         19.72844        22.82804         0.53870
C         20.96655        24.91034         0.45451
C         19.70068        25.62899         0.85177
C         20.88077        27.85736         0.75089
C         19.73439        27.12422         0.69109
C         20.87124        29.29874         0.79332
C         19.71458        29.99203         0.92988
O          7.21787        17.73920         0.48996
O         16.51023        12.36375         0.22256
O         14.95001        26.70472        -1.59120
O         16.52095        20.75737         1.48027
O         17.17687        22.92577        -1.49104
O         18.27343        28.32777         2.17314
O         12.22682        26.68565        -1.85120
O          4.34301        24.74119         2.27943
O          7.93567        20.79708        -2.57328
O         17.62010         8.81094         1.35329
O         19.98516         8.56959        -1.36404
O          2.13545        10.60147         1.46724
O          1.49537        16.50245        -2.73820
O          3.95851        12.11629        -2.39123
O         15.38578         5.69772        -1.39819
O         15.56798        14.61600        -2.36756
O         16.89809        19.19363        -1.69130
O         18.75938        11.32278        -2.26194
O          1.57610        19.18763        -2.70610
O          6.29172        11.06498        -2.39691
O          5.62329        22.55971         1.50409
O         11.16622        24.27928         0.84906
O          5.62181        19.03915        -2.44981
O          1.92632        27.16437         2.58258
O          7.56303         8.65726        -1.68655
O         17.36237         3.79958        -1.47980
H         16.61165         4.24314        -1.93813
O         13.21848         7.43701        -2.15910
H         13.96431         6.90069        -2.51082
O         19.58841        25.44072         2.31017
H         19.58613        24.47333         2.48002
O          6.90221        12.68671         0.79070
H          7.44145        13.36022         1.25819
O         11.14187        12.39924         1.24942
H         10.34358        12.00072         1.66131
O         12.78959         6.31581         2.20656
H         12.07983         6.06948         2.83624
O          9.90828        13.92515        -2.70110
H          9.08219        13.49425        -3.00991
O          5.04327        27.21169         2.62809
H          4.47019        26.56079         3.09989
O          7.65715        26.78909         2.33341
H          6.77259        26.90999         2.76461
O         14.85781        22.28440        -2.26491
H         15.80301        22.22864        -2.54269
O         17.76791         6.44806         2.24549
H         17.36227         7.33584         2.41077
O          3.41332        14.65243        -3.13609
H          3.46864        13.68054        -3.30631
O         13.71493        16.01895         0.75037
H         12.88166        15.59054         1.04414
O         11.28098        19.31586        -2.72030
H         10.89132        20.18118        -3.01433
O         10.19703        21.71215        -2.62391
H          9.31544        21.58612        -3.10315
O          6.05084        27.48508        -0.89531
H          6.87746        27.83098        -1.29551
O         14.30322        21.86542         1.30321
H         14.96604        21.52391         1.95150
O         19.43013        21.36348         2.35350
H         19.20794        20.44683         2.62369
O          7.34252         6.35984         2.66184
H          6.57942         5.92152         3.09588
O         10.66259        20.33229         0.76637
H         10.84710        21.14714         1.28022
O          2.25064         3.71713        -0.51802
H          1.38740         4.07421        -0.81853
O         12.59552        10.07332         1.48415
H         12.37488        11.01806         1.68387
O         16.00485        10.32312        -2.83206
H         16.89246        10.57579        -3.17482
O          9.58224        25.90564        -2.02975
H         10.40702        26.31403        -2.39036
O          3.47964        27.28097        -0.71329
H          4.29883        27.57299        -1.18156
H          1.30770         2.61280         1.98876
H         -0.74347         3.97186         2.27270
H         -0.86402         6.29865         1.46978
H         -0.94189         8.08391         0.64232
H         -0.96966        10.46607         0.20399
H         -0.84124        12.49006         0.52754
H         -0.91916        14.83740        -0.15462
H         -1.07530        16.60307        -0.72531
H         -1.10990        18.98306        -0.76356
H         -1.09375        20.97865        -0.90869
H         -1.05530        23.28195        -0.12010
H         -1.00776        25.08110         0.41471
H         -1.02306        27.41901         1.05144
H          0.28066        29.61008         1.15380
H          3.78430         2.56067         1.62773
H          2.42212        30.79873         0.96905
H          6.22392         2.59859         1.65960
H          4.84513        30.77919         1.22975
H          8.67300         2.63220         1.73109
H          7.33920        30.80630         1.30056
H         11.11188         2.59983         1.62541
H          9.84640        30.85248         1.19170
H         13.54912         2.47139         1.25871
H         12.23698        30.85516         1.27917
H         16.11313         2.70122         1.11802
H         14.69882        30.93994         1.28389
H         18.56081         2.50703         0.62660
H         17.14576        31.10491         1.11162
H         20.50245         3.82036         1.29969
H         21.69776         5.99693         1.50402
H         21.83352         8.39514         0.93969
H         22.02800        10.11634        -0.46342
H         21.99435        12.53351        -0.31576
H         21.86235        14.32111         0.53300
H         21.87102        16.72708         0.76922
H         21.98845        18.71061         0.54616
H         21.95490        21.08409         0.96281
H         21.90836        23.00507         0.28403
H         21.91074        25.46308         0.35797
H         21.86114        27.36155         0.73689
H         21.82863        29.83086         0.70279
H         19.70487        31.09108         0.88445
