         344
 CSIRO Nanostructure Databank - Neutral Graphene Oxide Data Set
C          1.43266         1.98450        -0.67658
C          1.39275         3.39713        -0.84229
C          2.59565         1.28431        -0.79779
C          2.57236         4.15127        -0.96223
C          1.34855         6.33216        -1.22657
C          1.31396         7.69084        -1.16665
C          2.55385         5.58341        -0.96991
C          2.48737         8.44023        -0.59938
C          1.27294        10.68094        -0.71339
C          1.24683        12.02164        -0.52850
C          2.51495         9.94383        -0.79897
C          2.49436        12.76053        -0.12142
C          1.32203        14.99682        -0.20440
C          1.32222        16.42253        -0.32935
C          2.45053        14.25177        -0.39880
C          2.50939        17.13043        -0.50298
C          2.55547        18.57161        -0.47039
C          3.86611         1.96938        -1.20590
C          3.84614         3.46326        -0.97283
C          5.07410         1.31054        -0.61701
C          5.04685         4.15848        -0.88717
C          3.78927         6.31578        -0.89639
C          3.77121         7.70895        -0.89451
C          5.05888         5.60837        -0.89072
C          5.01189         8.44091        -1.17093
C          3.70893        10.64958        -0.85858
C          3.75454        12.07542        -0.63360
C          4.96371         9.94966        -1.23657
C          4.96270        12.76666        -0.61397
C          3.71825        14.91733        -0.87961
C          3.74500        16.41280        -0.65074
C          4.95499        14.24359        -0.28174
C          4.95796        17.08717        -0.70368
C          3.74335        19.23963        -0.54732
C          4.99625        18.53588        -0.66099
C          6.26185         2.01461        -0.42897
C          6.29826         3.44962        -0.65956
C          7.46218         1.34654        -0.06896
C          7.50112         4.14165        -0.53727
C          6.26333         6.31276        -0.85454
C          6.29792         7.74237        -0.94909
C          7.57856         5.58203        -0.97028
C          7.49748         8.44526        -0.76998
C          6.25689        10.69315        -1.14977
C          6.22620        12.10863        -0.76359
C          7.55637         9.91291        -0.92739
C          7.44402        12.78760        -0.57404
C          6.22832        14.96104        -0.69527
C          6.19975        16.34241        -0.82856
C          7.46261        14.23274        -0.60479
C          7.43751        17.09590        -1.05094
C          6.20459        19.22724        -0.70375
C          7.45959        18.55593        -0.82892
C          8.67580         2.04759         0.07241
C          8.69580         3.47366        -0.13636
C          9.87851         1.37612         0.40251
C          9.89526         4.20438         0.10263
C          8.73092         6.34339        -0.35587
C          8.70113         7.75770        -0.36963
C          9.89037         5.64769         0.04185
C          9.86759         8.50117         0.01233
C          8.70598        10.65365        -0.38037
C          8.67636        12.06848        -0.35067
C          9.86199         9.93719         0.02085
C          9.86056        12.78878         0.02575
C          8.69120        14.90445        -0.52858
C          8.76537        16.33028        -0.84174
C          9.87639        14.23335        -0.09366
C          9.94689        17.09206        -0.44299
C          8.67853        19.21289        -0.74579
C          9.92827        18.51741        -0.56606
C         11.07887         2.08493         0.58864
C         11.08096         3.51820         0.47696
C         12.28578         1.41460         0.94054
C         12.28069         4.24192         0.76546
C         11.07105         6.37548         0.40250
C         11.05286         7.80834         0.37493
C         12.26010         5.68357         0.74722
C         12.23377         8.54434         0.71289
C         11.03117        10.65598         0.42875
C         11.02101        12.09159         0.42102
C         12.20863         9.95296         0.77614
C         12.22396        12.81270         0.78508
C         11.02282        14.97857         0.22426
C         11.07220        16.40746         0.05891
C         12.15669        14.28613         0.85760
C         12.28960        17.13767         0.29153
C         11.13033        19.21460        -0.37513
C         12.32038        18.53792        -0.00949
C         13.45312         2.12497         1.19214
C         13.45877         3.53778         1.09956
C         14.69961         1.40095         1.65681
C         14.70517         4.28227         1.51131
C         13.47070         6.42305         0.96869
C         13.46620         7.83664         0.92933
C         14.71348         5.72513         1.07392
C         14.70323         8.56050         1.02269
C         13.38988        10.67717         1.38092
C         13.40493        12.15966         1.09334
C         14.70070         9.97530         1.12509
C         14.65357        12.88083         1.26957
C         13.43273        15.06657         1.15614
C         13.48041        16.49189         0.73151
C         14.68256        14.29280         1.29168
C         14.68285        17.20968         0.77721
C         13.54701        19.24842         0.10772
C         14.71364        18.59825         0.47157
C         15.96937         2.12377         1.26476
C         15.96524         3.53017         1.16597
C         17.14586         1.41039         1.02976
C         17.15262         4.21175         0.83058
C         15.91046         6.41803         0.91365
C         15.93142         7.84172         0.93504
C         17.14847         5.67852         0.48577
C         17.18497         8.54980         0.99301
C         15.91137        10.70252         1.14913
C         15.87338        12.12566         1.27354
C         17.17273         9.97224         1.10135
C         17.13495        12.87450         1.18552
C         15.91519        15.05876         1.53962
C         15.93438        16.55289         1.23172
C         17.22732        14.29797         1.72173
C         17.20331        17.19722         0.85279
C         15.98144        19.38456         0.69721
C         17.23644        18.55398         0.50893
C         18.35823         2.08507         0.74842
C         18.34379         3.50524         0.65711
C         19.57515         1.36926         0.50687
C         19.60320         4.23670         0.25273
C         18.44377         6.39154         0.79706
C         18.42608         7.84133         0.97174
C         19.60992         5.69729         0.66349
C         19.65116         8.53735         1.13142
C         18.41269        10.64361         1.25299
C         18.42005        12.11557         1.20039
C         19.62762         9.94024         1.35303
C         19.65147        12.89064         1.54728
C         18.45813        14.98877         1.13632
C         18.38889        16.34555         0.48501
C         19.62492        14.30352         1.09737
C         19.68663        17.10193         0.54852
C         18.44884        19.16940         0.14026
C         19.69266        18.46126         0.22848
C         20.80984         2.03210         0.43875
C         20.82737         3.50051         0.81361
C         22.00431         1.35836         0.18122
C         22.13986         4.19731         0.53342
C         20.90599         6.43461         0.44829
C         20.92530         7.83356         1.01708
C         22.16878         5.63183         0.69153
C         22.12378         8.47447         1.15143
C         20.89496        10.65410         1.65058
C         20.94018        12.15516         1.61877
C         22.19399         9.91041         1.49761
C         22.19734        12.84336         1.23401
C         20.87034        14.88911         0.47738
C         20.96837        16.37654         0.85735
C         22.17346        14.16230         0.79257
C         22.17294        17.00605         0.20252
C         20.94524        19.12921        -0.01821
C         22.14369        18.41756        -0.11973
C         23.27667         2.02251         0.18522
C         23.31116         3.47306         0.39174
C         24.43753         1.31820        -0.03742
C         24.59644         4.14798         0.36678
C         23.37244         6.29325         0.79566
C         23.42494         7.72561         1.28391
C         24.62022         5.59347         0.58025
C         24.61806         8.48144         0.80356
C         23.41604        10.68513         1.15886
C         23.41824        12.06208         1.14763
C         24.57332         9.94699         0.50824
C         24.70973        12.84745         1.11376
C         23.37287        14.84091         0.36386
C         23.30857        16.23722         0.00095
C         24.62483        14.16541         0.36862
C         24.48057        16.85297        -0.65852
C         23.36318        19.05785        -0.50920
C         24.53199        18.33348        -0.73776
C         25.80091         1.93535         0.02723
C         25.76836         3.43818         0.18276
C         26.68824         1.54255        -1.13918
C         27.06604         4.12452         0.09218
C         25.79220         6.30664         0.42681
C         25.91788         7.75233         0.84149
C         27.06224         5.62122         0.14338
C         27.06810         8.49691         0.20253
C         25.90776        10.64181         0.68421
C         25.92860        12.04788         0.73959
C         27.09514         9.91393         0.37494
C         27.12223        12.76951         0.52634
C         25.81701        14.76476        -0.07077
C         25.76422        16.06429        -0.77234
C         27.09436        14.13259         0.14321
C         27.06235        16.76812        -1.17750
C         25.77721        18.97046        -0.94372
C         27.00313        18.28052        -1.00895
C         27.85586         2.19616        -1.37242
C         28.25453         3.37269        -0.50401
C         28.87484         1.66782        -2.26100
C         29.29039         4.27093        -1.16669
C         28.04017         6.39028        -0.71377
C         28.17757         7.83620        -0.31075
C         29.32802         5.66438        -1.00310
C         29.35768         8.55218        -0.69856
C         28.31620        10.60760         0.12302
C         28.41497        12.01538         0.66612
C         29.39980         9.97122        -0.47105
C         29.63264        12.74549         0.21656
C         28.31688        14.85508        -0.09221
C         28.31095        16.16369        -0.56824
C         29.63483        14.23371         0.34827
C         29.52394        16.90836        -0.70655
C         28.20816        18.97951        -1.05989
C         29.46893        18.30824        -1.01998
C         30.07903         2.28504        -2.41200
C         30.30954         3.62648        -1.91196
C         31.43960         4.37068        -2.31156
C         30.45885         6.42230        -1.42374
C         30.48546         7.86397        -1.22627
C         31.53834         5.72374        -2.02128
C         31.67070         8.62943        -1.50843
C         30.55669        10.80759        -0.97740
C         30.88106        11.93121         0.10092
C         31.73082         9.98303        -1.38198
C         32.08412        12.74162        -0.23846
C         30.85047        14.87449        -0.27082
C         30.80117        16.25890        -0.59187
C         32.03007        14.09557        -0.43375
C         31.97557        17.02132        -0.85598
C         30.66453        19.02751        -1.21292
C         31.90227        18.37678        -1.14681
O         15.79653        16.06197         2.62386
O          4.86823         9.17510        -2.47049
O         12.44613        14.80147         2.21392
O          8.24876        16.66256        -2.17763
O          7.15723        10.40285        -2.25673
O         27.55388         4.86589         1.30601
O         24.81263        16.11177        -1.89647
O         20.27398        12.68337         2.84105
O         21.61911        10.16782         2.82904
O         17.85275        12.62720        -0.06840
O         29.74149        14.47061         1.81897
H         29.08836        13.86615         2.24842
O         31.13452        11.19547         1.34116
H         31.59121        11.81094         1.95375
O         28.60421        11.84668         2.13225
H         29.42534        11.30305         2.22979
O         30.11415        11.57736        -2.12960
H         29.98004        10.95892        -2.87786
O         15.96539        20.54434        -0.12835
H         16.69001        21.13882         0.14930
O         21.17405        16.42054         2.30468
H         21.13644        17.35922         2.58414
O         13.19578        10.58432         2.84853
H         12.48471        11.21533         3.09152
O         20.93191         6.65187        -1.01443
H         20.71066         5.77892        -1.42786
O         17.43132        14.13452         3.14232
H         17.11434        14.95992         3.57600
O         20.72746        14.79024        -0.96116
H         19.81935        15.11430        -1.19478
O         24.28781        10.05281        -0.95237
H         24.30643        11.00448        -1.19267
O         23.60986         7.59869         2.75190
H         24.58564         7.56333         2.92373
O         26.31736         7.64223         2.28734
H         26.92822         6.87379         2.36103
O         14.71057         0.04946         1.19241
H         14.73276         0.06106         0.21386
O         27.22941        16.55292        -2.61052
H         26.31925        16.52879        -2.99053
O          4.86139        14.39065         1.15975
H          5.57449        13.86035         1.57090
O          3.98733         1.78698        -2.67886
H          4.77626         2.29504        -2.96716
O         17.09642         5.68771        -1.00146
H         17.07200         6.62760        -1.28509
O         14.67472         4.33840         2.98535
H         13.89389         4.87245         3.24468
O         19.66237         4.22235        -1.20643
H         18.79485         4.58336        -1.51388
O         27.35259         6.42964        -2.01968
H         27.90059         6.96895        -2.62853
O          2.54708        12.63201         1.34554
H          2.46450        11.67676         1.55445
O         28.93467         2.75886         0.64182
H         28.99099         3.46238         1.33022
O         20.65832         3.56682         2.26052
H         21.42969         3.12974         2.67834
O          3.79485        14.70365        -2.32214
H          3.05472        15.19138        -2.73998
O          2.33635         8.33303         0.88774
H          2.19199         7.38279         1.08995
O         24.93288        13.22907         2.51908
H         24.08659        13.58133         2.86964
O         18.20110        16.03131        -0.97915
H         18.16673        16.89490        -1.44744
O          7.87414         5.53158        -2.41694
H          7.85191         6.45472        -2.75022
O         26.46541         1.39617         1.21898
H         27.40065         1.72378         1.20061
H          0.49617         1.45895        -0.43817
H          0.42124         3.90500        -0.77445
H          2.61099         0.19267        -0.66606
H          0.45010         5.78786        -1.55197
H          0.38582         8.22389        -1.41583
H          0.32749        10.13795        -0.85770
H          0.28254        12.54958        -0.50297
H          0.38442        14.51335         0.10811
H          0.37896        16.96924        -0.18726
H          1.61076        19.12587        -0.36940
H          5.06796         0.21721        -0.48945
H          3.76325        20.33910        -0.51738
H          7.44481         0.25704         0.08123
H          6.20043        20.32431        -0.61402
H          9.86825         0.28350         0.52852
H          8.68908        20.31054        -0.66273
H         12.28797         0.31894         1.03701
H         11.15605        20.30571        -0.51224
H         14.66537         1.35098         2.78031
H         13.56968        20.32719        -0.10083
H         17.13317         0.31250         1.09609
H         15.97125        19.71752         1.78434
H         19.53776         0.27485         0.39354
H         18.46940        20.23975        -0.10919
H         21.97868         0.27750        -0.02763
H         20.93404        20.20331        -0.25549
H         24.38382         0.23110        -0.20300
H         23.38002        20.15385        -0.60644
H         26.45693         0.61933        -1.69410
H         25.80029        20.07187        -0.94631
H         28.67583         0.70821        -2.76086
H         28.19576        20.07975        -1.10423
H         30.85876         1.82698        -3.03852
H         32.24399         3.87124        -2.87075
H         32.43979         6.26391        -2.33938
H         32.57200         8.10334        -1.85303
H         32.65312        10.50859        -1.66981
H         33.04520        12.21781        -0.34433
H         32.95337        14.60269        -0.75180
H         32.96382        16.54751        -0.78398
H         30.61829        20.10357        -1.43321
H         32.82643        18.94742        -1.31502
