         617
 CSIRO Nanostructure Databank - Neutral Graphene Oxide Data Set
C          6.42456        30.92734        -0.31441
C          6.39703        32.12201        -0.97473
C          8.38748        26.99877         1.98288
C          8.20595        28.49103         2.12356
C          7.31587        29.11503         1.06060
C          8.44415        31.28160         1.20610
C          7.33646        30.45474         0.73786
C          8.52962        32.64425         1.00693
C          7.16048        33.28986        -0.56178
C          8.82990        35.12864        -0.67500
C          7.80504        34.25560        -1.27474
C          8.98423        36.39568        -1.21118
C         10.87553        22.81072         2.39320
C         10.83598        24.23372         2.51776
C          9.64240        24.91601         2.30045
C         10.79203        27.10156         2.54788
C          9.55274        26.34910         2.32575
C         10.80721        28.44700         2.31811
C          9.55549        29.21960         2.22729
C         10.93125        31.32400         1.61104
C          9.63778        30.63824         1.78138
C         10.96408        32.69051         1.33417
C          9.76219        33.37163         0.90566
C         11.05504        35.39246         0.41986
C          9.83864        34.63459         0.26211
C         11.16152        36.70537        -0.09717
C         10.08243        37.25026        -0.87394
C         11.30550        39.36444        -1.10017
C         10.16717        38.55771        -1.36292
C         11.43413        40.65711        -1.65603
C         13.35941        18.64815         1.74453
C         13.35392        20.01075         2.18926
C         12.13113        20.68884         2.31657
C         13.26228        22.79984         3.00085
C         12.04868        22.08156         2.57100
C         13.24118        24.26676         3.05014
C         12.06604        24.95876         2.84045
C         13.15029        27.13844         3.28657
C         12.04241        26.41094         2.89756
C         13.01772        28.66846         3.32735
C         12.17074        29.08437         2.11617
C         13.37513        31.42768         2.27202
C         12.17821        30.59064         1.84772
C         13.29916        32.88728         2.14948
C         12.17443        33.46028         1.50929
C         13.36042        35.58743         1.34098
C         12.17683        34.82792         1.12698
C         13.46755        36.92424         0.84016
C         12.33482        37.50363         0.13179
C         13.53923        39.71724         0.05912
C         12.38469        38.81945        -0.33062
C         13.74163        40.86958        -0.89318
C         12.66169        41.36647        -1.60520
C         13.70510        43.68596        -1.76590
C         12.80461        42.62128        -2.43467
C         13.99950        44.75797        -2.79958
C         15.77606        14.63516         0.16889
C         15.73437        16.00001         0.53335
C         14.56784        16.62054         1.00243
C         15.82001        18.68482         1.66346
C         14.53486        17.97993         1.42879
C         15.80929        20.13674         1.94515
C         14.60743        20.72776         2.31291
C         15.83142        22.93372         2.67470
C         14.61463        22.10642         2.83570
C         15.79424        24.32997         3.03207
C         14.49704        24.94463         3.43894
C         15.68793        27.22405         3.48547
C         14.42295        26.46431         3.63514
C         15.63136        28.68651         3.71117
C         14.33870        29.42714         3.48504
C         15.60979        31.61154         3.31735
C         14.45982        30.84023         3.06432
C         15.61376        33.03823         3.04992
C         14.44504        33.65341         2.46526
C         15.64528        35.78333         2.22764
C         14.47144        35.01121         2.01628
C         15.79022        37.08895         1.66370
C         14.67792        37.61806         0.94621
C         16.13649        39.61408         0.24485
C         14.81183        38.92057         0.25490
C         16.15190        41.06546        -0.04682
C         15.03599        41.58158        -0.87392
C         16.14656        43.86250        -0.67228
C         15.02856        43.05591        -1.24336
C         16.19529        45.26037        -0.89015
C         14.71645        45.86607        -2.43039
C         16.49634        47.60378        -2.79027
C         15.32880        46.88764        -3.19301
C         16.74373        48.78476        -3.53611
C         18.23121        10.68692        -1.60806
C         18.19498        12.01192        -1.16624
C         17.00443        12.66717        -0.75966
C         18.16836        14.81726        -0.37540
C         16.95125        14.01428        -0.31956
C         18.20311        16.12601         0.00326
C         16.93019        16.88398         0.24624
C         18.31718        18.90576         1.08174
C         17.08658        18.04492         1.21457
C         18.18970        20.37789         1.22597
C         17.00330        20.92877         1.79046
C         18.25267        23.05498         2.10276
C         16.97802        22.31780         2.15102
C         18.21302        24.54417         2.47409
C         16.91651        25.15344         2.86492
C         18.03383        27.42010         2.74822
C         16.85133        26.57919         3.10648
C         18.16481        28.76518         3.39907
C         16.89737        29.49118         3.74870
C         18.04462        31.72570         3.65285
C         16.85978        30.97441         3.66581
C         18.02018        33.16886         3.62835
C         16.75789        33.82670         3.35125
C         17.61804        36.19350         3.49260
C         16.67810        35.24997         3.04395
C         17.94784        37.37387         2.77290
C         17.02323        37.81104         1.81074
C         18.33314        39.96634         1.47287
C         17.37714        38.95164         0.85502
C         18.32014        41.28266         1.11112
C         17.24018        41.84399         0.28771
C         18.45031        44.04317         0.14371
C         17.27613        43.24649        -0.09456
C         18.54591        45.35035        -0.43148
C         17.40263        45.95885        -1.04518
C         18.78331        47.81194        -1.87852
C         17.51286        47.16663        -1.84608
C         19.02460        48.91673        -2.72864
C         17.96155        49.46297        -3.49518
C         19.32024        51.33586        -4.33363
C         18.13101        50.68773        -4.25060
C         19.44780        52.56157        -5.19765
C         20.70735         6.64361        -2.97196
C         20.60590         8.01552        -2.82202
C         19.41645         8.68740        -2.38469
C         20.77754        10.70531        -1.77792
C         19.43167        10.01815        -1.98613
C         20.67084        12.20370        -1.78209
C         19.50602        12.75176        -0.99170
C         20.40039        15.09597        -1.61743
C         19.29278        14.23338        -1.15195
C         20.59198        16.39159        -0.89593
C         19.48651        16.87646        -0.01827
C         20.54462        19.19512        -0.19411
C         19.52837        18.31152         0.42065
C         20.36205        20.63813        -0.00864
C         19.28947        21.19031         0.85518
C         20.49567        23.37427         1.02656
C         19.35493        22.55262         1.25400
C         20.46573        24.76463         1.43398
C         19.32916        25.35421         1.95722
C         20.48180        27.61721         1.94933
C         19.24564        26.81687         2.11162
C         20.41710        29.07293         2.19967
C         19.40733        29.57478         3.18828
C         20.52356        31.87193         3.07454
C         19.36247        31.05759         3.48774
C         20.52868        33.23675         3.30998
C         19.28467        33.86551         3.69262
C         20.51295        36.03530         3.82866
C         19.41053        35.22161         4.07297
C         20.30913        37.53114         4.01338
C         19.30578        38.03040         2.91175
C         20.56271        40.30576         2.66373
C         19.45180        39.39909         2.27600
C         20.62856        41.58118         2.13329
C         19.33768        42.25221         1.68973
C         20.74359        44.24397         0.98413
C         19.55654        43.49827         0.85535
C         20.81125        45.56441         0.44717
C         19.73309        46.11838        -0.27239
C         21.01945        48.12884        -0.88293
C         19.85861        47.37741        -0.98805
C         21.52642        48.99500        -2.01691
C         20.38872        49.45657        -2.93344
C         21.76098        51.57254        -3.58504
C         20.53411        50.71712        -3.75662
C         21.73695        52.95406        -4.10015
C         20.68661        53.39271        -4.94639
C         21.96170        55.41365        -5.48437
C         20.82035        54.58724        -5.64656
C         22.21644        56.48433        -6.39300
C         23.31331         3.94284        -3.18718
C         22.06665         4.57327        -3.13484
C         23.16220         6.72936        -3.39339
C         21.96645         5.98106        -3.21481
C         23.10488         8.17260        -3.57148
C         21.74615         8.87352        -3.20393
C         22.99419        11.00121        -2.97684
C         21.84609        10.22760        -2.72261
C         22.96734        12.41008        -2.68784
C         21.72759        12.98440        -2.21263
C         22.85901        15.30013        -2.30181
C         21.61917        14.46260        -2.20714
C         22.85445        16.70744        -1.80343
C         21.73307        17.27618        -1.24264
C         22.82360        19.50703        -1.10752
C         21.66395        18.68379        -0.86559
C         22.83539        20.86720        -0.70336
C         21.59219        21.53446        -0.29060
C         22.87258        23.56144         0.27249
C         21.66250        22.85422         0.36030
C         22.94505        24.96385         0.73625
C         21.70098        25.58662         1.29806
C         22.71249        27.91232         0.91091
C         21.59948        27.06103         1.41133
C         22.87036        29.27080         1.43825
C         21.66326        29.88854         2.00053
C         23.03208        31.97048         2.55077
C         21.77236        31.16860         2.75338
C         22.98015        33.43318         2.78440
C         21.74697        34.02572         3.17937
C         22.95834        36.17151         3.44711
C         21.72818        35.42622         3.41157
C         22.94247        37.49841         3.94670
C         21.65884        38.29293         3.98571
C         22.97655        40.45199         3.32439
C         21.69163        39.72565         3.43893
C         23.09753        41.64377         2.46054
C         21.85789        42.35218         2.09828
C         23.16065        44.44408         1.72044
C         21.92627        43.66341         1.61654
C         23.17442        45.86118         1.35055
C         21.91509        46.44908         0.83887
C         23.19445        48.67962         0.32754
C         21.94906        47.85422         0.20862
C         23.40335        49.84075        -0.56652
C         22.49198        50.09898        -1.57981
C         23.71422        52.28381        -2.05066
C         22.75551        51.23676        -2.48136
C         23.77313        53.48660        -2.74601
C         22.82324        53.82384        -3.80284
C         23.98736        56.02198        -4.19189
C         22.91639        55.05841        -4.49046
C         24.17610        57.23768        -5.07294
C         23.38576        57.25795        -6.32621
C         25.21282        58.47008        -7.43363
C         23.89606        57.93899        -7.44525
C         24.48909         4.68338        -3.28631
C         25.62585         6.88768        -3.46801
C         24.43818         6.09720        -3.37975
C         25.59763         8.29052        -3.48998
C         24.31874         8.98242        -3.47927
C         25.44350        11.19420        -3.67590
C         24.22862        10.36339        -3.38211
C         25.43461        12.59219        -3.12121
C         24.16445        13.21491        -2.76462
C         25.34719        15.38584        -2.34732
C         24.13118        14.57922        -2.43945
C         25.24486        16.86315        -2.34013
C         24.06240        17.48518        -2.00070
C         25.21278        19.61982        -1.67367
C         24.02755        18.90531        -1.64613
C         25.29327        20.89076        -0.94216
C         24.04453        21.60369        -0.63411
C         25.32059        23.71281        -0.22268
C         24.07062        22.95622        -0.21556
C         25.29743        25.17016        -0.03146
C         24.06320        25.80189         0.25308
C         25.12496        28.12275         0.00549
C         23.91903        27.25598         0.24084
C         25.21135        29.47091         0.59024
C         24.05647        30.03639         1.29111
C         25.29701        32.20126         1.53572
C         24.09741        31.37914         1.74159
C         25.36588        33.60417         2.09386
C         24.15658        34.19358         2.69889
C         25.47089        36.23806         3.33379
C         24.21066        35.54676         3.16187
C         25.46978        37.51440         3.96912
C         24.18305        38.03439         4.33038
C         25.18986        40.98846         4.26016
C         23.97739        40.24264         4.22847
C         25.51190        41.98292         3.38992
C         24.40515        42.43144         2.49981
C         25.54553        44.62404         2.50859
C         24.31996        43.86498         2.22930
C         25.57952        46.02121         1.93270
C         24.34699        46.58990         1.34227
C         25.70443        48.70715         0.72827
C         24.41713        48.02277         0.94256
C         25.74742        50.00834         0.24090
C         24.61422        50.61445        -0.41344
C         25.94580        52.60196        -1.05241
C         24.74641        51.87189        -1.10507
C         26.04450        53.94537        -1.59962
C         24.83297        54.46869        -2.43580
C         26.34626        56.25532        -3.35887
C         25.08675        55.58519        -3.33165
C         26.54422        57.37293        -4.18212
C         25.46007        58.06631        -4.96298
C         25.98815        58.48860        -6.30686
C         26.78320         9.06665        -3.44481
C         27.92675        11.22277        -3.38390
C         26.75276        10.47411        -3.46102
C         27.91193        12.65581        -3.34579
C         26.61531        13.30621        -3.14390
C         27.78396        15.57977        -3.18793
C         26.64476        14.72509        -2.73494
C         27.78378        16.99166        -2.79464
C         26.41349        17.66423        -2.86745
C         27.73381        19.81276        -2.21727
C         26.41466        19.10463        -2.36462
C         27.80206        21.11105        -1.53093
C         26.59144        21.66080        -0.89012
C         27.78469        23.82252        -0.54695
C         26.50589        23.09912        -0.58948
C         27.78322        25.30761        -0.28042
C         26.47013        25.94058        -0.20233
C         27.69933        28.16303        -0.14533
C         26.44248        27.40494        -0.29013
C         27.64626        29.53643         0.10682
C         26.42479        30.15898         0.52414
C         27.84500        32.12029         1.50077
C         26.54680        31.42642         1.29664
C         27.89045        33.46818         2.17657
C         26.66002        34.24480         2.41703
C         28.00401        36.20685         3.01035
C         26.71057        35.53193         2.94682
C         28.04880        37.58294         3.59266
C         26.80918        38.23691         4.20597
C         28.06701        40.48603         3.99436
C         26.99468        39.72748         4.42066
C         28.05455        41.97191         3.82056
C         26.81154        42.65048         3.39504
C         28.04048        44.74827         2.91736
C         26.81977        43.92451         2.86197
C         28.15575        45.86496         1.92596
C         26.89200        46.55490         1.46360
C         28.22611        48.72037         1.23736
C         26.95805        47.94941         0.93839
C         28.30614        50.01637         0.50001
C         27.04703        50.73716         0.29736
C         28.47091        52.62921        -0.72950
C         27.13605        52.10226        -0.34910
C         28.53517        53.84267        -1.44930
C         27.37532        54.53285        -1.88052
C         27.46653        55.69246        -2.64970
C         29.09643        13.37786        -3.30895
C         30.32269        15.63423        -3.14016
C         29.12646        14.84627        -3.39334
C         30.26799        17.01325        -2.93634
C         28.98332        17.70510        -2.78143
C         30.21082        19.82317        -2.35090
C         29.00691        19.10918        -2.46256
C         30.21371        21.22173        -2.01958
C         28.97928        21.82210        -1.59090
C         30.19085        24.07364        -1.42728
C         28.93417        23.27063        -1.32225
C         30.21639        25.44528        -0.88295
C         29.00045        26.10919        -0.55946
C         30.16805        28.28393        -0.40919
C         28.95035        27.50268        -0.35093
C         30.15066        29.65371        -0.31632
C         28.88234        30.34842        -0.03196
C         30.33631        32.35441         0.83119
C         29.00157        31.70684         0.63917
C         30.40211        33.61215         1.48650
C         29.22678        34.17341         2.22331
C         30.46513        36.32076         2.45968
C         29.17664        35.59887         2.59255
C         30.44030        37.79963         2.69337
C         29.23793        38.42862         3.30725
C         30.53302        40.47793         3.96753
C         29.27480        39.76366         3.63925
C         30.53630        41.97898         4.08068
C         29.25699        42.67443         3.76067
C         30.62918        44.77892         3.06233
C         29.32603        44.11805         3.41701
C         30.68350        45.98931         2.41016
C         29.47584        46.53982         1.74036
C         30.71732        48.58959         1.09031
C         29.49678        47.92168         1.23620
C         30.75171        49.92088         0.60162
C         29.55437        50.62759         0.26667
C         29.61575        51.92178        -0.35252
C         31.47415        17.77170        -2.82585
C         32.68135        19.90649        -2.50441
C         31.47636        19.14879        -2.57351
C         32.68406        21.28135        -2.22460
C         31.42938        21.96237        -1.97443
C         32.66636        24.06513        -1.54179
C         31.45561        23.34934        -1.64991
C         32.66660        25.45275        -1.17767
C         31.45344        26.10745        -0.82836
C         32.72099        28.28212        -0.50565
C         31.44300        27.52381        -0.41846
C         32.65645        29.75769        -0.78437
C         31.33662        30.54402        -0.65092
C         32.74004        32.45705         0.32730
C         31.48107        31.77451         0.25182
C         32.81752        33.72791         0.97490
C         31.63456        34.31559         1.52938
C         33.04674        35.95038         2.63640
C         31.73111        35.52692         2.29702
C         32.92828        38.28948         2.04193
C         31.74811        38.47696         2.96605
C         33.11830        40.45797         3.83990
C         31.80795        39.73998         3.75698
C         33.14788        41.95234         3.96917
C         31.85256        42.73374         4.01426
C         33.18620        44.71571         3.06991
C         31.88797        44.15460         3.54226
C         33.22151        46.19305         2.75421
C         31.92524        46.71374         2.17271
C         31.93424        47.90488         1.49923
C         33.89750        22.03097        -2.15122
C         35.14101        24.13276        -1.75137
C         33.91588        23.38777        -1.81912
C         35.17229        25.48404        -1.43232
C         33.91997        26.18024        -1.14246
C         35.22369        28.23599        -0.68103
C         33.94746        27.53458        -0.85991
C         35.21385        29.72198        -0.51403
C         33.94234        30.49686        -0.70041
C         35.16951        32.57041        -0.11509
C         33.94328        31.89329        -0.21047
C         35.21908        33.86091         0.44801
C         34.06022        34.44496         1.01305
C         35.32568        36.52526         1.68933
C         34.16801        35.66806         1.76848
C         35.41823        37.82411         2.24246
C         34.26174        38.59356         2.64643
C         35.65056        40.39305         3.78158
C         34.33933        39.74077         3.40000
C         35.55551        41.87105         3.38544
C         34.40345        42.59433         3.47623
C         34.33287        43.98985         3.06854
C         36.41529        26.21530        -1.39044
C         37.70269        28.31393        -0.97995
C         36.48303        27.55694        -1.05178
C         37.73238        29.69667        -0.81387
C         36.46258        30.46239        -0.84079
C         37.72279        32.59970        -0.28519
C         36.43342        31.95060        -0.61127
C         37.74174        33.91203         0.14364
C         36.46617        34.64804         0.33874
C         37.84795        36.77195         0.96786
C         36.49030        36.05212         0.87710
C         37.88895        37.83419         2.01889
C         36.71785        38.46895         2.45750
C         36.81034        39.69001         3.14258
C         38.93280        30.44887        -0.65542
C         40.18046        32.48155        -0.05368
C         38.93969        31.81601        -0.37153
C         40.20474        33.76659         0.39519
C         38.99031        34.54568         0.52899
C         39.02329        35.82749         1.02493
O         31.89481        43.82792         4.98209
O         15.52834        42.06331        -2.19381
O         14.42547        25.54565         4.77263
O         33.31118        41.11086         5.15204
O         22.17412         8.66063        -4.58118
O         22.78148        31.18123         3.80188
O         29.22088        24.00698        -2.56273
O         19.45103        18.41543         1.88680
O         17.74504        28.86275         4.77783
O         26.86731        19.99895        -3.45324
O         36.19191        35.81644        -0.54560
O         23.52863        48.91557         1.71668
O         19.24844        14.85448        -2.49244
O         20.59774        16.11029         0.56356
O         28.64462        31.60409        -0.76890
O         25.42333        45.82474         3.36865
O         21.36568        47.62691         1.52070
O         23.39515        57.36928        -3.84683
O         25.16965        33.35631         0.62764
O         25.60361        27.97489        -1.36097
O         27.37802        31.13517         2.48614
O         24.04819        39.17790         5.13426
O         32.78337        38.13880         0.84151
O         26.96768        46.80645         0.02290
O         28.28277        15.32713        -4.51882
O         19.98739        38.15874         1.64063
O         20.80705        49.40004        -4.34792
O         31.95639        38.44820         4.42363
O          9.47982        30.28083         3.25691
O         21.97681        15.09125        -3.47862
O         18.16710        27.46876         1.28477
O         22.98703        50.84277        -3.89870
O         28.76608        33.34982         3.35405
O          7.34437        33.36092         0.83547
O         20.50061        21.40237        -1.25517
O         26.95421        51.97993         1.10404
O         25.42900        11.37832        -5.21217
O         32.21415        27.86569         0.80773
O         26.08036        40.45429         5.19081
O         14.81298        29.13689         4.84861
O         27.75206        37.50306         5.04836
O         30.28962        37.33142         1.32892
O         24.09022        41.54049         1.37486
O         21.50434        39.42911         4.88216
O         28.51023        45.00749         4.27129
O         25.03461        54.83019        -1.03240
O         18.29758        35.83645         4.65666
O         33.35167        30.15924        -2.01189
O         35.30182        28.90878         0.67598
O         26.18646        20.79903         0.24918
O         18.68371        23.52855         3.42025
O         13.23872        30.87430         0.86659
O         15.65742        38.84879        -0.93829
O         26.32890        14.91981        -1.31565
O         22.76774        25.09454         2.21276
O         36.33522        31.38357        -1.96524
O         28.08719        24.31570         0.79565
O         14.99682        45.96038        -1.03694
O         13.96078        22.20849         4.14436
O         20.54025        29.93154         1.02163
O         16.67434        17.86148         2.58149
O         19.88755        30.06442         4.46734
O         22.78561        27.76019        -0.56228
O         28.97230        45.49680         0.77064
O         30.43735        41.13700         5.27215
O         34.32900        46.52339         1.91707
H         34.17220        46.14411         1.02839
O          7.49497        28.67019         3.38304
H          7.89664        29.46426         3.81331
O         25.13640        59.28617        -4.22425
H         24.45179        59.02797        -3.56348
O         24.20048        12.04553        -5.55021
H         23.61172        11.30723        -5.84345
O         28.01683        49.09687         2.66315
H         28.58181        49.87519         2.85992
O         19.89109        12.57404         0.41992
H         19.17999        12.95878         0.97777
O         38.04820        37.51462        -0.28417
H         37.48011        37.06239        -0.95684
O         26.15071        17.70712        -4.30296
H         26.53146        18.55819        -4.62988
O         12.24179        29.00462         4.49516
H         12.82264        28.86583         5.27710
O         12.97806        44.21760        -0.64561
H         13.43881        45.04264        -0.36433
O         18.26690        53.35022        -5.03511
H         18.39005        54.20748        -5.49007
O         35.87332        40.32893         5.21622
H         35.04734        40.66517         5.64421
O         33.35142        36.48413         3.83550
H         32.56613        36.59759         4.41105
O         31.00836        31.07161        -1.96011
H         31.85626        31.15873        -2.45843
O         21.22166        10.31565        -0.42885
H         20.77478        10.92653         0.20767
O         12.72801        28.42895         0.94957
H         13.21121        29.11793         0.43207
O         16.66136        17.56048        -1.03444
H         16.55295        16.86934        -1.72314
O         13.22427        40.29447         1.37055
H         12.37186        40.77314         1.29091
O         18.72755        42.73696         2.93788
H         19.29376        43.45470         3.29343
O         22.36975        48.09213        -2.79462
H         22.36717        48.45066        -3.71644
O         19.70865        37.75362         5.29287
H         20.09737        38.57908         5.66632
O         13.31803        42.28052        -3.72661
H         14.22708        41.92050        -3.58872
O         18.10621        38.34255        -0.23879
H         17.43808        38.08497        -0.91581
H          5.76338        30.13813        -0.71001
H          5.76311        32.20440        -1.87184
H          7.49053        26.40301         1.75234
H          6.52718        28.47887         0.62790
H          7.62306        34.36562        -2.35437
H          8.24708        36.76327        -1.94039
H          9.95297        22.28339         2.10650
H          8.73332        24.33953         2.07063
H          9.35186        38.96383        -1.97944
H         10.60281        41.07473        -2.24236
H         12.39281        18.13925         1.61208
H         11.20247        20.14330         2.09016
H         11.79370        43.07330        -2.59042
H         13.76836        44.55170        -3.85420
H         14.86374        14.03052         0.28692
H         13.63529        16.03677         1.04844
H         14.90478        47.13519        -4.17777
H         15.95216        49.15911        -4.20176
H         17.28545        10.12526        -1.67691
H         16.06365        12.09576        -0.79424
H         17.24721        51.11477        -4.74554
H         19.49951        52.20474        -6.27717
H         19.83302         6.01410        -2.74677
H         18.46793         8.12778        -2.37408
H         20.05328        54.88226        -6.37916
H         21.56239        56.58310        -7.27282
H         23.36702         2.84706        -3.12201
H         21.15379         3.97376        -3.00918
H         25.62258        58.86156        -8.37640
H         23.31915        57.94385        -8.38083
H         25.46436         4.17640        -3.29129
H         26.59909         6.37475        -3.47814
H         27.53398        57.85502        -4.17528
H         27.00840        58.89685        -6.34765
H         27.75371         8.55574        -3.35322
H         28.89594        10.70318        -3.33784
H         29.52143        54.25500        -1.70997
H         28.45688        56.14260        -2.81392
H         30.05488        12.83633        -3.30483
H         31.29157        15.11701        -3.06814
H         31.72180        50.41837         0.46175
H         30.60449        52.34564        -0.58204
H         32.43296        17.25210        -2.97349
H         33.63958        19.39137        -2.67042
H         33.39162        46.72923         3.73111
H         32.89614        48.41898         1.35102
H         34.84761        21.51597        -2.35894
H         36.08398        23.60774        -1.96672
H         36.47124        42.37421         3.03700
H         35.26457        44.47737         2.74232
H         37.33924        25.67577        -1.64916
H         38.65632        27.76990        -1.06258
H         38.86364        38.29561         2.23970
H         37.81104        40.11545         3.31380
H         39.89347        29.91170        -0.67311
H         41.11578        31.91029        -0.14562
H         41.15889        34.24504         0.65929
H         39.99687        36.26575         1.29456
