         210
 CSIRO Nanostructure Databank - Neutral Graphene Oxide Data Set
C         30.51145        31.61726         1.36805
C         30.56776        32.86978         1.41552
C         30.58268        35.99139         1.47458
C         30.58314        37.25666         1.36632
C         30.49219        40.24021         0.51458
C         30.40118        41.43366         0.13017
C         32.86529        28.91386         0.47457
C         31.80207        29.42059         0.91497
C         32.88759        31.56738         0.94940
C         31.64345        30.80629         1.12204
C         32.88659        32.98912         1.14640
C         31.69549        33.72283         1.34246
C         32.93184        35.91436         1.26513
C         31.68518        35.15356         1.38124
C         32.93289        37.37549         1.21752
C         31.67254        38.10213         1.19956
C         32.82029        40.26018         0.73491
C         31.63570        39.49422         0.86147
C         32.79911        41.62416         0.31841
C         31.52718        42.27254         0.00222
C         32.75709        44.21453        -0.47377
C         31.65569        43.62868        -0.39694
C         35.34624        27.48357        -0.78525
C         35.13493        28.92172        -0.67844
C         34.06142        29.55575         0.09448
C         35.24555        31.78593        -0.04291
C         34.07329        30.92140         0.44325
C         35.39418        33.09910         0.70787
C         34.19248        33.70830         1.41066
C         35.38670        35.96138         1.33142
C         34.12845        35.21464         1.25671
C         35.38978        37.42725         1.13691
C         34.13405        38.11072         1.14700
C         35.36824        40.36370         1.04289
C         34.05493        39.62839         1.35810
C         35.32380        41.73324         0.43655
C         34.05318        42.34792         0.17069
C         35.27176        44.41074        -0.46587
C         34.06498        43.71143        -0.26594
C         35.41380        45.77864        -0.82411
C         37.75283        27.48371        -1.13935
C         36.40898        26.96774        -1.17662
C         37.74580        28.87933        -0.88325
C         36.51329        29.66937        -0.76376
C         37.78089        31.63906         0.02218
C         36.56685        31.02595        -0.16914
C         37.89361        32.99781         0.66555
C         36.58621        33.74591         0.75805
C         37.86616        35.93386         0.67494
C         36.69308        35.18272         1.14892
C         37.83659        37.35854         0.66947
C         36.62334        38.08298         0.95332
C         37.85096        40.24859         0.42283
C         36.64989        39.56761         0.92684
C         37.87176        41.76780         0.46290
C         36.52302        42.40340         0.14843
C         37.77562        44.47118        -0.58761
C         36.53458        43.75511        -0.32085
C         37.78832        45.86507        -0.91440
C         36.47661        46.40951        -0.99602
C         40.22508        24.68481        -1.65225
C         39.19628        25.40572        -1.48469
C         40.29090        27.51289        -1.47329
C         38.94897        26.76140        -1.31442
C         40.29619        28.76623        -0.61961
C         39.00100        29.49611        -0.41091
C         40.25873        31.62971        -0.15436
C         39.03929        30.94976        -0.18516
C         40.27490        33.08488        -0.08386
C         39.05860        33.80588         0.14479
C         40.19207        35.97451        -0.21091
C         39.00352        35.20771         0.18893
C         40.24556        37.41538         0.06799
C         39.03934        38.09358         0.34142
C         40.28023        40.24217         0.01631
C         39.02337        39.53736         0.24816
C         40.27989        41.62137        -0.20270
C         38.95649        42.28385        -0.48936
C         40.24451        44.45442        -0.78000
C         39.02647        43.79152        -0.55917
C         40.26785        45.85952        -1.10385
C         39.00273        46.54159        -1.17336
C         40.22910        48.54015        -1.77712
C         39.18200        47.89605        -1.52135
C         42.81119        24.66416        -1.38548
C         41.52235        25.25014        -1.42547
C         42.76278        27.39422        -1.00686
C         41.55191        26.68078        -1.25005
C         42.77886        28.82756        -0.73818
C         41.55763        29.53795        -0.58405
C         42.75884        31.63480        -0.22446
C         41.52203        30.92248        -0.31757
C         42.75424        33.06508        -0.11984
C         41.50923        33.76026        -0.17073
C         42.77244        35.95371        -0.10542
C         41.52745        35.21514        -0.34209
C         42.74392        37.36983        -0.03217
C         41.49763        38.09223        -0.00225
C         42.74200        40.23668         0.04657
C         41.51836        39.52326         0.04255
C         42.73238        41.66210        -0.05656
C         41.49807        42.34683        -0.27936
C         42.73243        44.42543        -0.67856
C         41.50484        43.74373        -0.59005
C         42.76354        45.76951        -1.30544
C         41.49630        46.54331        -1.40106
C         42.83105        48.46107        -1.89595
C         41.50969        47.94194        -1.72231
C         43.86193        25.31979        -1.17563
C         45.24226        27.40627        -0.77351
C         44.02852        26.70829        -0.98393
C         45.26170        28.82195        -0.53644
C         44.00716        29.51983        -0.51877
C         45.22324        31.64094        -0.05227
C         43.99545        30.93103        -0.27214
C         45.20706        33.06137         0.10411
C         43.97813        33.78199        -0.00818
C         45.21344        35.92849         0.18131
C         43.98689        35.22719         0.03829
C         45.21451        37.36957         0.19614
C         43.97829        38.08330         0.09927
C         45.20735        40.20905         0.25779
C         43.99081        39.51122         0.12482
C         45.16711        41.67566         0.44442
C         43.93880        42.41596         0.06102
C         45.16367        44.61331        -0.04017
C         43.94295        43.78469        -0.26362
C         45.26413        45.96586        -0.64405
C         44.15381        46.51234        -1.40948
C         43.91978        47.93878        -1.60161
C         47.62093        27.47313        -0.56083
C         46.54846        26.85945        -0.75761
C         47.75498        28.85556        -0.27852
C         46.48743        29.52836        -0.27956
C         47.67327        31.63598         0.31828
C         46.46731        30.93912        -0.01081
C         47.63936        33.04850         0.54939
C         46.42405        33.76281         0.36621
C         47.65523        35.88359         0.56051
C         46.43821        35.19914         0.37873
C         47.72304        37.32630         0.13290
C         46.43154        38.08057         0.31040
C         47.70830        40.19799         0.39142
C         46.45352        39.50339         0.35122
C         47.72527        41.65413         0.18791
C         46.48301        42.42004         0.50132
C         47.80602        44.61547         0.20789
C         46.48978        43.91310         0.37043
C         47.56113        46.00225         0.08034
C         46.49861        46.53691        -0.36509
C         50.25996        29.04008         0.09664
C         48.95147        29.54959         0.02388
C         50.12044        31.62883         0.80318
C         48.92868        30.94589         0.37248
C         50.00800        33.00012         1.22565
C         48.82515        33.74162         0.97472
C         50.01235        35.93197         1.26294
C         48.82845        35.19164         0.97884
C         50.10035        37.34442         0.95273
C         48.94549        38.07229         0.59259
C         50.20439        40.19337         0.60519
C         48.96000        39.49516         0.49998
C         50.27858        41.71365         0.67861
C         49.02889        42.42614         0.18650
C         50.34935        44.36638         0.34308
C         49.00009        43.91571         0.32171
C         51.34440        29.59203         0.42077
C         52.43805        31.77445         1.32806
C         51.39957        30.93204         0.84952
C         52.34286        32.87964         1.89845
C         51.12790        33.67916         1.91448
C         52.35540        36.03710         1.96528
C         51.12539        35.24332         1.93823
C         52.37723        37.18715         1.49098
C         51.34229        38.07069         1.07664
C         52.54897        40.31098         0.85629
C         51.38598        39.45441         0.86385
C         52.71529        41.52956         0.69760
C         51.64266        42.37550         0.03999
C         51.47970        43.83871         0.42352
O         48.42299        42.01308        -1.07225
O         36.22863        35.52974         2.49260
O         50.78869        34.44123         3.07639
O         35.54303        29.60691        -1.88649
O         39.64544        28.67436         0.67526
O         45.63017        44.55223         1.34759
O         43.62800        45.73531        -2.50376
O         40.75738        35.64697        -1.51886
O         36.25101        40.25719         2.21925
O         45.82430        42.02150         1.73065
O         34.45225        33.46485         2.83846
H         35.15293        34.11064         3.11140
O         51.67317        42.22790        -1.33415
H         52.47270        42.65340        -1.70387
O         33.82118        39.77637         2.78786
H         34.70529        39.75438         3.22391
O         40.34255        27.98804        -2.84509
H         40.39597        27.21039        -3.44030
O         38.24482        32.74138         2.06956
H         37.53410        32.19477         2.46756
O         47.89009        37.24034        -1.34911
H         47.94558        38.16015        -1.68842
O         38.23360        42.15114         1.80876
H         37.60478        41.68931         2.41352
O         50.31277        42.03026         2.08319
H         51.14888        41.68140         2.46179
O         38.54133        41.84301        -1.81863
H         39.22238        42.12725        -2.46371
O         34.88739        32.20250        -1.39536
H         34.93546        31.39404        -1.96433
