         276
 CSIRO Nanostructure Databank - Neutral Graphene Oxide Data Set
C        -10.47595         0.33167        -2.05465
C         -9.37971         1.13488        -1.40426
C         -8.04123         0.38750        -1.49276
C         -6.86810         1.18934        -1.03666
C         -5.71651         0.49314        -0.37767
C         -4.86943         1.32108         0.58897
C         -3.48540         0.65116         0.78586
C         -2.53457         1.47408         1.64204
C         -1.24382         0.80534         2.03998
C          0.02305         1.56833         1.92563
C          1.25678         0.89878         2.10090
C          2.39908         1.70373         2.07443
C          4.42273         0.57199         1.88737
C          5.62749         1.29541         1.59219
C          6.49545         0.76011         0.58563
C          7.58263         1.55127         0.04933
C          8.32028         1.08858        -1.02353
C          9.29347         1.91426        -1.73347
C         10.22409         1.25839        -2.65098
C         -9.25122         2.57089        -1.84137
C         -8.14409         3.31677        -1.52112
C         -6.97849         2.66864        -0.90937
C         -5.88780         3.40102        -0.50809
C         -4.75672         2.78133         0.17119
C         -3.70466         3.53432         0.62527
C         -2.56373         2.94994         1.37189
C         -1.26169         3.69874         1.43570
C          0.01167         2.95348         1.59321
C          1.20805         3.62777         1.25147
C          2.43957         2.99669         1.48648
C          3.59056         3.44961         0.65073
C          5.79553         2.63408         2.02369
C          6.71556         3.58126         1.35827
C          7.85742         2.98602         0.51332
C          8.08928         3.84108        -0.78662
C          9.25264         3.26701        -1.56170
C         -8.11421         4.75772        -1.72140
C         -7.00371         5.50950        -1.43135
C         -5.73256         4.81396        -1.02015
C         -4.88310         5.68778        -0.13279
C         -3.76845         5.02130         0.59345
C         -2.47710         5.77618         0.56905
C         -1.20779         5.06539         0.82323
C          0.05758         5.86588         1.06971
C          1.18770         4.96233         0.54270
C          2.49162         5.69398         0.16866
C          3.84834         4.92336         0.28640
C          4.88907         5.65691         1.18822
C          6.32625         5.03038         1.12330
C          7.34049         5.87032         0.39192
C          8.23530         5.30103        -0.43592
C         -6.89139         6.92308        -1.69445
C         -5.79676         7.70533        -1.33917
C         -4.75058         7.12776        -0.49168
C         -3.78356         7.85012         0.15243
C         -2.47843         7.29283         0.69133
C         -1.22756         7.90618        -0.07594
C          0.05487         7.24609         0.42733
C          1.26185         7.89002         0.31299
C          2.52455         7.16890         0.48504
C          3.70152         7.85302         0.64656
C          5.03451         7.13738         0.67098
C          6.14930         7.87185         1.44306
C          7.51498         7.25694         0.98558
C         -5.64216         8.99477        -2.00728
C         -4.57166         9.84466        -2.00576
C         -3.47744         9.73939        -1.05366
C         -2.14501         9.96543        -1.16060
C         -1.21424         9.48687        -0.04536
C          0.17797        10.05334        -0.17810
C          1.31851         9.33230         0.04830
C          2.59827         9.99085         0.18270
C          3.72822         9.30528         0.55811
C          4.99175         9.99708         0.77996
C          6.10990         9.36047         1.17826
C        -10.50908        -0.99572        -1.87655
C         -9.43016        -1.71273        -1.08589
C         -8.04565        -1.15865        -1.52287
C         -6.89445        -1.83166        -0.72563
C         -5.78923        -0.98271        -0.13702
C         -4.91813        -1.54705         0.96057
C         -3.65821        -0.75920         1.33278
C         -2.46370        -1.45388         1.90587
C         -1.15557        -0.70846         2.11980
C          0.15863        -1.42448         2.24444
C          1.50817        -0.62543         2.30246
C          2.57598        -1.15689         1.25102
C          4.03338        -0.61465         1.29371
C          5.01485        -1.22844         0.43767
C          6.20992        -0.54486         0.10875
C          7.33221        -1.20034        -0.64752
C          8.04501        -0.25467        -1.56922
C          8.89597        -0.82764        -2.66513
C         10.05762        -0.01209        -3.08453
C         -9.46796        -3.22851        -1.33359
C         -8.36461        -3.94590        -0.58286
C         -7.06772        -3.25599        -0.28797
C         -6.44059        -3.72103         1.02907
C         -5.08562        -2.97707         1.39886
C         -3.82048        -3.72120         1.94824
C         -2.46793        -2.94341         1.69797
C         -1.14151        -3.64306         1.70752
C          0.19512        -2.97200         2.09273
C          1.23162        -3.36669         1.00097
C          2.64790        -2.73561         1.32815
C          3.70648        -3.32195         0.39447
C          4.79641        -2.59355        -0.01466
C          5.73699        -3.16380        -1.02554
C          7.12643        -2.61518        -1.14101
C          7.91698        -3.09519        -2.33387
C          8.84539        -2.29177        -2.92095
C         -8.50833        -5.24506        -0.22901
C         -7.37444        -6.00835         0.27859
C         -6.41777        -5.29337         1.23173
C         -5.01544        -5.96754         1.31120
C         -3.74008        -5.14167         1.35768
C         -2.39754        -5.81849         1.24719
C         -1.15238        -5.16894         1.88916
C          0.21253        -5.83517         1.44327
C          1.22606        -4.90101         0.75176
C          2.47313        -5.57871         0.28042
C          3.78334        -4.83063         0.39189
C          4.84492        -5.45133        -0.51644
C          5.61709        -4.58418        -1.44166
C          6.68778        -5.23829        -2.24587
C          7.73357        -4.49858        -2.70505
C         -7.28030        -7.34023         0.00955
C         -5.94670        -8.02923        -0.02318
C         -4.88898        -7.39253         0.86368
C         -3.54717        -8.08228         0.79354
C         -2.31350        -7.30894         1.07999
C         -1.01461        -7.91510         0.71279
C          0.11663        -7.16826         0.73760
C          1.45940        -7.81927         0.93396
C          2.61500        -7.07022         0.32602
C          3.73722        -7.69536        -0.10676
C          4.87918        -6.92943        -0.68405
C          5.75177        -7.60300        -1.75796
C          6.29616        -6.59444        -2.80429
C         -5.90273        -9.53320         0.15326
C         -4.71824       -10.16735         0.16442
C         -3.42309        -9.38956         0.00767
C         -2.16692       -10.10208         0.42785
C         -0.99045        -9.38451         0.59257
C          0.26899       -10.03124         0.67062
C          1.48669        -9.29796         0.64338
C          2.64116        -9.92517         0.23014
C          3.87518        -9.20301        -0.21523
C          4.14323        -9.49173        -1.69643
C          4.99649        -8.74115        -2.40555
O          8.38074         7.13658         2.12701
H          8.25982         6.23162         2.49638
O          2.08357        -0.68330        -0.01016
H          2.55094        -1.14723        -0.73611
O          6.00097         7.66643         2.86316
H          6.91523         7.70354         3.23620
O          8.28715        -1.71883         0.38651
O          2.08220         5.57044        -1.26907
O          0.90964        -6.27067         2.68695
O         -3.47058        -0.89919         2.77666
O         -2.25197         1.23482         3.02975
O          7.04233         4.64137         2.35073
O         -2.76425         0.61450        -0.46486
H         -3.30525         0.09920        -1.11746
O          4.15593        -5.20833         1.79922
O         -4.92774         5.52727         1.32674
O          4.35476         5.63527         2.49995
H          4.88678         6.27002         3.04611
O         -7.08545         0.88434        -2.46915
O          4.97005        -3.52693        -2.23066
O          4.21290         2.60850         0.01514
O         -3.92099         9.24622         0.20904
O          5.76893        -6.27663         0.27878
O         -2.17808         3.69974         2.57149
O          6.93991         3.67288        -1.64797
H          6.16422         4.16643        -1.28813
O         -5.54129        -1.87194         2.22959
O         -1.31815         7.60098        -1.47782
H         -1.19214         6.62734        -1.58944
O          1.57710        -7.59292         2.41432
O         -5.48606        -7.73891        -1.40289
H         -6.20556        -7.99818        -2.01696
O         -6.25790        -2.95391        -1.45210
O          6.87997        -8.17980        -1.05594
H          7.13147        -7.53266        -0.35411
O         -3.97166        -3.83697         3.35998
H         -4.41273        -3.01741         3.67977
O          5.01129        -9.66230         0.54341
H          5.82258        -9.28595         0.12167
O          1.44763        -5.15975        -0.67615
O         -3.20705        -9.08776        -1.39753
H         -3.98016        -8.54328        -1.70066
O          7.56822        -0.21396        -2.94866
O         -5.16056        -7.07777         2.24479
O         -3.01573        -5.19094         0.08735
O          3.52915         1.21808         2.74535
O          0.92506         4.73169        -0.90324
O         -1.69302         5.19167        -0.55034
O         -7.07285        -5.57373         2.44135
O          7.89716        -3.10875         0.05450
O         -2.93401        -8.13370         2.12312
O         -4.97651        -0.41290        -1.23998
O         -1.72281        -3.19498         0.46190
O          5.35021        -4.48765         2.16275
H          4.97396        -3.74787         2.70927
O         -0.60397        -1.08669         3.43677
O         -5.58046         1.29295         1.84287
H         -4.97172         1.53664         2.57310
O          0.23032         6.03015         2.48790
H         -0.55183         6.53072         2.82060
O          0.60330        -3.48090         3.37392
H          0.00392        -4.21826         3.66264
O         -1.29656        -5.37352         3.31087
H         -1.33200        -6.33688         3.49899
O          5.53130         7.15529        -0.68612
H          4.94139         6.60343        -1.25276
O          5.22691        -6.36079        -3.73300
H          5.40971        -5.53779        -4.23139
O          2.03088        -0.82248         3.61392
H          1.26639        -0.83076         4.23376
O         -4.95935         4.68029        -2.26056
H         -4.19339         4.09211        -2.08856
O          3.08832        -3.06521         2.65091
H          2.30860        -3.13587         3.25856
O          0.76415        -2.75822        -0.20753
H          0.82128        -3.42386        -0.93175
O         -1.66880         9.99181         1.23887
H         -2.62455        10.21968         1.15487
O         -9.63118        -1.52117         0.32191
H         -9.82245        -0.56479         0.48678
O        -10.74461        -3.73348        -0.94323
H        -10.89435        -3.42486        -0.02331
O         -9.71483         1.19610         0.03135
H         -9.10501         1.82948         0.46760
O         -7.41980        -3.23445         1.95315
H         -7.56590        -3.98174         2.60388
O         -7.91527        -1.53314        -2.90127
H         -7.10372        -1.09843        -3.24485
O          4.43643         4.86140        -1.02899
H          3.75686         4.50126        -1.64510
O         -2.28045         7.56290         2.09594
H         -2.08073         8.53272         2.17641
O          5.14448         3.14027         3.06186
H          4.50120         2.47743         3.42192
O          9.04932         2.98051         1.31516
H          9.02274         3.77032         1.89729
H         10.79098        -0.46573        -3.76792
H         11.07627         1.85126        -3.01586
H          9.92687         3.93513        -2.11839
H          9.05134         5.89583        -0.87465
H          8.01230         7.93353         0.24757
H          7.03056         9.93278         1.37016
H          5.00303        11.08734         0.62810
H          2.64396        11.07974         0.03069
H          0.24875        11.15075        -0.24228
H         -1.70979        10.32038        -2.10451
H         -4.54155        10.65397        -2.75153
H         -6.43686         9.21511        -2.73950
H         -7.69277         7.38888        -2.29070
H         -9.02948         5.24478        -2.09174
H        -10.13000         3.06446        -2.28435
H        -11.25633         0.85557        -2.62712
H        -11.32226        -1.59919        -2.30825
H         -9.34714        -3.41901        -2.43157
H         -9.43993        -5.77595        -0.48252
H         -8.07799        -7.81146        -0.59192
H         -6.84436       -10.09382         0.25832
H         -4.67206       -11.26261         0.27108
H         -2.13331       -11.20232         0.41345
H          0.31238       -11.12242         0.53320
H          2.60784       -11.01057         0.04372
H          3.62795       -10.34156        -2.17064
H          5.19646        -8.96609        -3.46387
H          7.17418        -7.05855        -3.33675
H          8.45316        -4.93999        -3.41301
H          9.49459        -2.69534        -3.71412
