         480
 CSIRO Nanostructure Databank - Neutral Graphene Oxide Data Set
C         37.57265        50.36373        -1.28723
C         36.63364        51.15639        -1.86996
C         37.65851        53.21029        -1.04351
C         36.67391        52.58915        -1.74502
C         39.89940        48.71947        -0.42799
C         39.81530        50.14432         0.06734
C         38.54705        50.91880        -0.33997
C         39.90347        53.09019         0.13481
C         38.59987        52.43955        -0.21863
C         39.94557        54.50185         0.43666
C         42.36163        48.68969        -0.31989
C         41.07770        48.05630        -0.53532
C         42.36290        50.17565        -0.33732
C         41.07026        50.93314        -0.31304
C         42.36399        53.12078         0.00521
C         41.07869        52.38777         0.01227
C         42.39790        54.53198         0.43812
C         41.12550        55.17752         0.60527
C         44.87017        45.95759        -0.78733
C         43.67704        46.59969        -0.55530
C         44.84598        48.75082        -0.14248
C         43.58212        48.01189        -0.27846
C         44.86260        50.11333        -0.04261
C         43.58499        50.86153         0.23833
C         44.89556        53.04227         0.38409
C         43.65734        52.35136        -0.03525
C         44.87614        54.42267         0.70668
C         43.62144        55.16546         0.68109
C         44.85680        57.22757         1.18837
C         43.71209        56.60841         0.82826
C         47.49126        44.63263        -1.32347
C         47.36278        45.92618        -0.72635
C         46.13860        46.58095        -0.56495
C         47.38891        48.69038         0.03181
C         46.09689        47.91797         0.13747
C         47.33793        50.13656         0.28642
C         46.13617        50.91246        -0.20601
C         47.31326        53.03816         0.49519
C         46.10680        52.33275         0.33448
C         47.32231        54.40091         0.88801
C         46.09323        55.07172         1.05008
C         47.36010        57.17302         1.71594
C         46.03439        56.43602         1.70212
C         47.36369        58.58386         2.01145
C         49.94672        44.53510        -1.07288
C         48.69949        43.99223        -1.50538
C         49.91323        45.85029        -0.38685
C         48.60824        46.57541        -0.23202
C         49.85271        48.79896        -0.10059
C         48.59908        48.05714        -0.07815
C         49.89239        50.16898         0.10988
C         48.63068        50.88318         0.36671
C         49.87204        53.10480         0.32353
C         48.58684        52.35878         0.17303
C         49.80728        54.50823         0.78085
C         48.59785        55.11596         1.04954
C         49.82816        57.17657         1.81832
C         48.55200        56.50483         1.50172
C         49.81465        58.67612         2.14668
C         48.50260        59.32465         2.09918
C         52.56961        42.10554        -2.16118
C         51.34695        42.72302        -2.00882
C         52.38237        44.44779        -0.46739
C         51.19080        43.91702        -1.25558
C         52.39024        45.96917        -0.42748
C         51.17690        46.62802        -0.41185
C         52.42943        48.85153        -0.25404
C         51.10424        48.08926        -0.44008
C         52.37226        50.23635         0.23194
C         51.12830        50.93082         0.22376
C         52.32614        53.00976         0.79936
C         51.11919        52.32042         0.48266
C         52.33723        54.42976         0.95270
C         51.10543        55.26985         0.63526
C         52.27914        57.27221         1.51732
C         51.11341        56.60018         1.35727
C         52.36375        58.64835         2.16455
C         51.07931        59.42919         1.97112
C         52.34069        61.50106         1.63598
C         51.11520        60.78065         1.76287
C         55.21378        40.84994        -2.59988
C         55.03518        41.97552        -1.80530
C         53.77436        42.63981        -1.61118
C         54.89772        44.51250        -0.46511
C         53.72291        43.86856        -0.88366
C         54.82509        45.85153         0.23550
C         53.62155        46.67057        -0.18419
C         54.84708        48.75603         0.34542
C         53.64143        48.05238        -0.02019
C         54.80081        50.13802         0.63460
C         53.56311        50.88048         0.62069
C         54.77061        52.98690         1.18834
C         53.55526        52.28604         0.89859
C         54.75617        54.37950         1.40301
C         53.53859        55.08378         1.23991
C         54.83425        57.29199         1.37866
C         53.55146        56.56988         1.19877
C         54.80959        58.74880         1.61683
C         53.61184        59.42026         1.76011
C         54.82605        61.57277         1.40922
C         53.57354        60.85839         1.63355
C         54.87501        62.96618         1.22522
C         57.64303        40.73551        -2.25858
C         56.47105        40.20662        -2.77541
C         57.52829        42.00695        -1.51850
C         56.19092        42.40032        -0.92391
C         57.32814        44.47693        -0.05515
C         56.15778        43.85982        -0.52171
C         57.36014        45.87818         0.22898
C         56.12282        46.63370         0.18732
C         57.34611        48.76420         0.59315
C         56.09154        48.01193         0.34547
C         57.23897        50.24772         0.50228
C         56.02067        50.88890         0.81942
C         57.26572        53.00839         1.20747
C         56.02595        52.28068         1.10211
C         57.28841        54.38788         1.53840
C         56.00730        55.07989         1.91210
C         57.28033        57.24741         1.65324
C         56.08786        56.55690         1.60803
C         57.28721        58.70337         1.52634
C         56.07115        59.43133         1.50291
C         57.29608        61.54018         1.21168
C         56.05966        60.85238         1.38595
C         57.30465        62.94886         0.95639
C         56.07799        63.63084         0.98203
C         60.50529        38.97189        -3.92812
C         59.20789        39.32899        -3.58309
C         60.09623        40.63962        -1.71539
C         58.97660        40.21997        -2.51356
C         60.00212        41.80321        -0.88088
C         58.74594        42.58360        -0.89073
C         59.85227        44.39426         0.35193
C         58.56253        43.62650         0.18775
C         59.81474        45.77699         0.64579
C         58.59862        46.51202         0.50596
C         60.00063        48.59705         0.67727
C         58.64174        47.98192         0.68202
C         60.20662        49.96225         0.45393
C         58.33218        51.09062         0.27263
C         59.85206        53.01691         0.83194
C         58.46821        52.37686         0.78269
C         59.75071        54.37886         1.49469
C         58.53512        55.07714         1.64958
C         59.74566        57.24529         1.84798
C         58.55026        56.53485         1.79864
C         59.78421        58.68939         1.66138
C         58.52399        59.41302         1.49846
C         59.76943        61.58060         1.34944
C         58.51289        60.81248         1.33603
C         59.78459        62.92701         0.74254
C         58.55802        63.61490         0.61285
C         59.77338        65.53595        -0.25492
C         58.58354        64.93970         0.11316
C         64.11425        37.09454        -3.78244
C         63.63068        38.12135        -2.95495
C         61.57741        39.32020        -3.08761
C         62.39795        40.19062        -0.81741
C         61.37689        40.01542        -1.88376
C         62.32264        41.52608        -0.04425
C         61.11549        42.35283        -0.24575
C         62.30949        44.30253         0.68786
C         61.06656        43.68432         0.29243
C         62.24849        45.69704         1.04076
C         61.05885        46.41330         1.00680
C         62.26972        48.57193         1.52744
C         61.10667        47.86557         1.14394
C         62.25659        49.97447         1.64468
C         61.18258        50.71934         1.11323
C         62.26908        52.88260         1.71631
C         60.93597        52.15468         1.59418
C         62.27855        54.28851         1.76504
C         60.98783        54.99208         1.93673
C         62.31294        57.19204         1.92076
C         61.01313        56.52998         2.10228
C         62.28914        58.69834         2.05377
C         60.99786        59.34923         1.61922
C         62.28297        61.43579         0.91837
C         61.05970        60.82067         1.46474
C         62.25664        62.76049         0.39040
C         61.01247        63.51435         0.33838
C         62.23394        65.45589        -0.64933
C         61.00998        64.84556        -0.17629
C         62.27475        66.78858        -1.13165
C         65.40423        36.19515        -1.94676
C         65.01834        36.15171        -3.29778
C         64.79814        37.16237        -1.12584
C         63.97595        38.21401        -1.58864
C         64.86664        39.98704         0.16736
C         63.67277        39.36338        -0.67512
C         64.78825        41.43829         0.49475
C         63.58982        42.15872         0.42528
C         64.73975        44.24930         1.30163
C         63.52123        43.57785         0.70201
C         64.77152        45.75212         1.15093
C         63.50079        46.52669         1.03709
C         64.77864        48.54836         1.72552
C         63.48725        47.76889         1.91910
C         64.77222        49.96254         2.13399
C         63.45399        50.70606         2.12142
C         64.71369        52.86945         1.96104
C         63.47310        52.17766         1.93178
C         64.71126        54.27468         1.78821
C         63.49837        55.00197         1.79023
C         64.77453        57.14836         1.71902
C         63.50222        56.47264         1.80921
C         64.81763        58.66529         1.82422
C         63.51472        59.35633         1.47484
C         64.72650        61.25718         0.45936
C         63.48235        60.65755         1.00219
C         64.69613        62.62167        -0.14544
C         63.43005        63.36626        -0.14069
C         64.63282        65.23670        -1.25512
C         63.43877        64.68951        -0.66514
C         64.61838        66.55646        -1.77432
C         63.42911        67.32610        -1.66540
C         67.81578        33.33688        -1.85270
C         66.65215        34.08352        -2.00445
C         67.61190        35.90703        -0.68206
C         66.53457        35.37274        -1.46342
C         67.57497        37.26448        -0.14092
C         66.34832        37.94571         0.09689
C         67.42714        40.10501         0.22451
C         66.21558        39.33577         0.14683
C         67.34832        41.48412         0.48734
C         66.06871        42.06617         1.07179
C         67.17651        44.31961         0.79191
C         66.05033        43.57862         0.96543
C         66.97287        45.72866         0.31600
C         65.91732        46.48851         1.03822
C         67.23146        48.62668         1.43779
C         65.92722        47.93408         1.30332
C         67.23945        50.02705         1.89392
C         66.03686        50.72540         2.07215
C         67.18840        52.89802         2.24372
C         65.98670        52.15887         2.14136
C         67.24038        54.28177         1.91026
C         65.99088        54.95633         1.38839
C         67.24764        57.09412         1.50005
C         65.98224        56.45026         1.59633
C         67.31917        58.59575         1.54140
C         66.00173        59.15905         0.97767
C         67.29529        61.38240         0.60004
C         66.02476        60.67026         0.90315
C         67.25202        62.85732         0.18120
C         65.95520        63.30829        -0.45884
C         67.01951        64.96009        -1.94650
C         65.89005        64.50110        -1.20230
C         66.85727        66.15243        -2.71513
C         65.78279        67.06121        -2.47519
C         67.04703        68.78437        -3.70341
C         65.92139        68.37677        -2.98866
C         70.10448        31.66899        -0.90408
C         70.23272        33.12289        -1.28714
C         68.93400        33.89470        -1.21886
C         70.04448        35.77968        -0.02770
C         68.83629        35.17591        -0.64258
C         70.02297        37.26424         0.33903
C         68.75787        38.00730         0.12093
C         69.90602        40.12974         0.68693
C         68.69164        39.40202         0.26584
C         69.93167        41.60873         0.53248
C         68.57968        42.28457         0.45698
C         69.74514        44.35549         1.51889
C         68.50435        43.67123         1.01107
C         69.76747        45.84552         1.81388
C         69.02354        46.76634         0.89797
C         70.07062        48.80805         2.70732
C         68.36089        47.90004         1.25065
C         69.80037        50.03615         2.04898
C         68.48256        50.69177         2.33385
C         69.68312        53.01006         2.72897
C         68.42937        52.21762         2.65184
C         69.70356        54.32578         2.19529
C         68.45786        54.96989         1.83947
C         69.70711        57.07907         1.34845
C         68.46550        56.38583         1.53135
C         69.71974        58.45977         0.89291
C         68.52522        59.16651         0.83116
C         69.75834        61.20098        -0.04484
C         68.43888        60.49161         0.12320
C         69.74832        62.52122        -0.53627
C         68.49743        63.32575        -0.57686
C         69.61929        64.63476        -2.43421
C         68.36925        64.36944        -1.66620
C         69.63365        65.45310        -3.57039
C         67.77912        66.52837        -3.72534
C         69.22033        68.15171        -4.93819
C         68.02161        67.83908        -4.12965
C         69.15400        69.26367        -5.80128
C         72.49372        31.59841        -0.47256
C         71.21843        30.95077        -0.60836
C         72.57768        32.97608        -0.44485
C         71.41678        33.78016        -0.61909
C         72.53031        35.91023        -0.03788
C         71.36951        35.14689        -0.26289
C         72.49490        37.28748         0.23460
C         71.30659        37.98864         0.40025
C         72.45766        40.27979         0.66325
C         71.26482        39.41391         0.74491
C         72.39291        41.61689         0.88217
C         71.14130        42.34358         1.00980
C         72.22617        44.35111         1.97945
C         71.07090        43.65984         1.43096
C         72.20389        45.60437         2.49987
C         71.00224        46.46568         2.45297
C         71.96545        48.42513         1.23683
C         71.12193        47.94694         2.25572
C         71.79361        49.69049         0.67243
C         70.65591        50.45185         1.01407
C         72.07201        53.23552         3.24943
C         70.86030        52.52375         3.36204
C         72.10886        54.45531         2.58858
C         70.92863        55.04778         2.09497
C         72.13580        57.04456         1.17996
C         70.93739        56.39239         1.52979
C         72.14656        58.35013         0.67678
C         70.97005        59.09270         0.53158
C         72.17564        61.16595        -0.22754
C         70.97396        60.48460         0.08702
C         72.16149        62.43767        -0.77992
C         70.94906        63.12993        -0.99151
C         72.01666        65.00550        -2.33160
C         70.87878        64.30353        -1.86561
C         71.91469        66.05004        -3.25256
C         70.69435        66.30485        -3.91813
C         71.55015        67.87510        -5.61979
C         70.45874        67.43380        -4.84536
C         71.45025        68.96672        -6.47750
C         70.24336        69.66627        -6.56839
O         64.65448        61.35001        -1.00411
O         57.91925        48.39276         1.92428
O         54.26256        57.03969        -0.00588
O         62.85716        39.07963        -3.60179
O         67.23333        46.02251        -0.85950
O         58.28921        43.06889        -2.19808
O         60.92096        55.63495         3.25602
O         68.29533        51.21185         3.70271
O         69.41251        42.10025        -0.74698
O         65.20175        37.13914         0.21630
O         49.25233        52.86912        -1.02117
O         37.95101        51.61495         0.81184
O         60.49512        61.53030         2.64848
O         70.45398        39.68056         1.95593
O         69.87051        36.21095         1.35839
O         66.80929        61.26737         1.97327
O         68.73793        64.73144        -0.24329
O         49.21866        45.86278         0.91826
O         68.83952        43.65670         2.44670
O         63.86612        39.10368         0.73286
O         49.90274        57.65238         3.21038
O         59.38057        50.57639        -0.47794
O         41.74207        50.65348        -1.58176
O         51.82147        48.67873        -1.57654
O         61.83752        40.27072         0.52452
O         69.82950        46.07925         3.24586
O         64.00929        50.22044         3.38969
O         47.88940        50.51614         1.58563
O         68.47405        65.48895        -4.35375
O         43.11510        52.85873        -1.27463
O         65.05016        59.02091         3.20925
H         64.19729        58.87865         3.69144
O         43.41416        50.80241         1.69381
H         43.55051        49.87562         1.98546
O         70.87077        51.40755         4.11835
H         69.93821        51.08143         4.23250
O         67.22834        63.60475         1.43059
H         67.61884        64.48970         1.23224
O         70.36622        51.60253         0.34001
H         71.06024        51.77430        -0.32644
O         56.06240        41.61325         0.29746
H         55.26677        41.92840         0.77661
O         69.55249        46.62836        -0.37030
H         68.91792        46.99736        -1.02527
O         66.05535        54.78551        -0.08095
H         66.01990        53.82250        -0.26409
O         63.40299        47.41564         3.31073
H         63.51996        48.24695         3.82635
O         46.33925        51.03183        -1.64932
H         45.59460        51.55086        -2.02249
O         51.18027        55.59714        -0.79028
H         51.01499        54.77247        -1.29653
O         69.32458        48.53363         3.79306
H         69.42186        47.57929         4.03343
O         68.00763        60.15534        -1.26794
H         68.71970        59.61358        -1.67278
O         65.80737        58.64279        -0.35021
H         66.43234        59.10979        -0.95697
O         45.96062        47.60697         1.56953
H         45.34991        46.84393         1.65030
O         39.84274        50.06593         1.51597
H         39.11727        50.65275         1.84482
O         70.58273        33.11725        -2.72826
H         71.39953        32.58096        -2.82022
O         60.38780        51.99892         2.92519
H         61.06154        51.57430         3.49705
O         67.53252        58.92803         2.93918
H         67.31709        59.88608         3.05097
O         63.53896        47.08238        -0.33022
H         63.65955        46.33958        -0.95881
O         45.75104        56.17934         3.12429
H         44.91046        55.67611         3.17036
O         60.36366        53.19801        -0.51162
H         59.65789        53.59370        -1.06348
O         58.34882        42.91478         1.43850
H         58.23752        43.57586         2.15312
O         55.89450        54.99083         3.38466
H         56.76099        55.25167         3.76504
O         64.60602        44.05984         2.75142
H         65.00258        43.18234         2.97966
O         52.50928        58.41713         3.60287
H         51.64800        58.03843         3.90813
O         66.05952        41.73045         2.50095
H         65.95477        40.75780         2.58284
O         62.33965        58.95221         3.51998
H         61.93271        59.83361         3.67960
O         52.17330        43.98126         0.90254
H         51.33931        44.38155         1.23156
O         54.62657        45.53881         1.65761
H         54.66883        46.38216         2.15659
H         37.61806        49.29540        -1.54134
H         35.89068        50.71351        -2.54815
H         37.78235        54.30098        -1.10971
H         35.95930        53.18403        -2.33118
H         38.96434        48.15308        -0.54917
H         38.99504        55.03675         0.57173
H         41.05124        46.98417        -0.77996
H         41.09408        56.23899         0.88795
H         44.83997        44.90806        -1.11365
H         42.74914        46.02906        -0.69702
H         44.87478        58.32549         1.23062
H         42.83772        57.21598         0.55271
H         46.58317        44.12643        -1.68025
H         46.40018        59.10560         2.08935
H         48.69120        43.00459        -1.98784
H         48.43769        60.41900         2.18131
H         52.61433        41.17552        -2.74367
H         50.46967        42.27936        -2.50092
H         52.27776        62.58883         1.50036
H         50.17831        61.35252         1.68704
H         54.36147        40.43036        -3.15404
H         53.95080        63.55931         1.25112
H         56.49612        39.28930        -3.38108
H         56.04800        64.71679         0.81963
H         60.70629        38.39771        -4.84151
H         58.37241        39.00513        -4.21822
H         59.74212        66.56245        -0.64274
H         57.64972        65.50683         0.00272
H         63.81723        37.08802        -4.83869
H         61.37515        67.41693        -1.09581
H         65.46095        35.41375        -3.98044
H         63.41446        68.35773        -2.04217
H         67.88099        32.33535        -2.29886
H         65.81453        33.66564        -2.58034
H         67.14567        69.84130        -3.98873
H         65.14432        69.12280        -2.77163
H         69.12606        31.17362        -0.98336
H         68.20800        69.81767        -5.88305
H         73.38535        30.98936        -0.27048
H         71.15267        29.86917        -0.42132
H         73.53068        33.44409        -0.15822
H         73.51521        35.43686        -0.15003
H         73.45380        37.81541         0.33473
H         73.43617        39.81332         0.48100
H         73.33182        42.18878         0.89497
H         73.17667        43.79980         2.01460
H         73.13355        46.03968         2.89580
H         72.76996        47.77381         0.86423
H         72.46692        50.04083        -0.12152
H         72.97773        52.82273         3.71144
H         73.06452        54.99274         2.52323
H         73.09651        56.52285         1.28545
H         73.11717        58.79490         0.41781
H         73.14312        60.66387        -0.09427
H         73.11158        62.89386        -1.09077
H         72.99968        64.78932        -1.89071
H         72.80102        66.66208        -3.47186
H         72.50201        67.32854        -5.55625
H         72.31647        69.27467        -7.07903
H         70.15221        70.52913        -7.24235
