         317
 CSIRO Nanostructure Databank - Neutral Graphene Oxide Data Set
C         30.30005        31.65784         0.68657
C         30.32517        32.88038         0.46622
C         30.51320        36.07362         0.83440
C         30.75834        37.21921         1.21027
C         30.43413        40.22789        -0.35318
C         30.16216        41.53193        -0.79040
C         32.70303        28.83154         0.93820
C         31.57043        29.35007         1.05678
C         32.71116        31.41722         0.27321
C         31.33296        30.65980         0.44979
C         32.72375        32.92805         0.13112
C         31.54679        33.75384         0.73431
C         32.84568        35.90550         0.30238
C         31.47860        35.15028         0.11229
C         32.80526        37.38587         0.01484
C         31.78739        38.23585         0.81537
C         32.95945        40.26670        -1.23486
C         31.17972        39.28751        -0.02907
C         32.69720        41.64693        -0.58739
C         31.31006        42.23790        -1.04565
C         32.64807        44.17950        -1.79000
C         31.60310        43.52132        -1.55738
C         35.46755        27.21503         1.22657
C         35.26084        28.55293         0.52085
C         34.02027        29.35570         0.77818
C         35.25805        31.44346         0.25418
C         34.00017        30.71724         0.46893
C         35.35928        32.94144        -0.11444
C         34.00538        33.65181        -0.18834
C         35.26987        35.93836         0.13390
C         34.04631        35.19537        -0.39200
C         35.26490        37.29683         0.00526
C         34.04696        38.01093        -0.61810
C         35.15754        40.27716        -0.21028
C         34.06008        39.52790        -0.52381
C         35.19922        41.72518        -0.52643
C         33.96798        42.42370        -0.88945
C         35.22376        44.43832        -1.64434
C         33.96783        43.69058        -1.47525
C         35.40179        45.89777        -1.57557
C         37.89274        27.22158         0.80773
C         36.60807        26.73459         1.24232
C         37.81710        28.63929         0.54313
C         36.52356        29.36033         0.91726
C         37.73226        31.50452         0.51148
C         36.43781        30.77780         0.40014
C         37.69670        32.94180         0.90011
C         36.29357        33.63668         0.93422
C         37.67672        35.97068         1.01699
C         36.38271        35.19244         0.80549
C         37.70895        37.42321         0.63779
C         36.33723        38.12301         0.68982
C         37.68687        40.29005         0.06906
C         36.38336        39.60453         0.29211
C         37.73648        41.66529        -0.60424
C         36.40264        42.39796        -0.56030
C         37.52484        44.64886        -0.30564
C         36.47295        43.80108        -1.04660
C         37.68528        46.16646        -0.72319
C         36.44040        46.54837        -1.41242
C         40.25436        24.36203         0.16328
C         39.30166        25.10248         0.48703
C         40.11911        27.16895        -0.37095
C         39.01130        26.49037         0.44620
C         40.16324        28.66510        -0.16665
C         38.98449        29.34455         0.13311
C         40.19802        31.64137        -0.17602
C         38.88432        30.82752        -0.22128
C         40.20765        33.08658         0.24621
C         38.98055        33.73080         0.84790
C         40.20138        35.93882         0.41771
C         38.98812        35.21692         0.99639
C         40.20680        37.40742         0.88809
C         38.88874        38.08023         0.48003
C         40.16362        40.28321         0.48747
C         38.95628        39.48201        -0.11765
C         40.25014        41.74435        -0.04678
C         38.87445        42.47825         0.14762
C         39.99061        44.75481         0.33993
C         38.90569        43.92480        -0.41265
C         40.36861        46.01084        -0.51360
C         39.03111        46.82888        -0.75922
C         40.55158        48.71311        -1.16227
C         39.49079        48.10222        -1.34918
C         42.79276        24.43696        -0.56188
C         41.37912        24.84407        -0.75591
C         42.74512        27.14072        -0.17029
C         41.44465        26.40405        -0.28165
C         42.73520        28.63506         0.08201
C         41.45006        29.40004        -0.04409
C         42.75219        31.53580         0.33744
C         41.52683        30.88195        -0.40057
C         42.76279        33.05069         0.15519
C         41.50438        33.80743         0.46685
C         42.78022        35.91773         0.81460
C         41.50443        35.16032         0.64889
C         42.78341        37.40589         0.65408
C         41.47728        38.10716         0.37189
C         42.74947        40.37179         0.39031
C         41.48936        39.59566         0.20077
C         42.75226        41.71335         0.69169
C         41.41713        42.46998         0.66783
C         42.34435        44.86155         1.15141
C         41.21936        43.97233         0.79554
C         42.63776        46.08676         0.65881
C         41.44766        46.91778         0.15732
C         42.95096        48.78990         0.05314
C         41.88368        48.13437        -0.79119
C         43.85473        25.05620        -0.61582
C         45.25498        27.28636        -0.62087
C         43.98022        26.53743        -0.87208
C         45.28544        28.63552        -0.37630
C         44.10427        29.33458         0.26470
C         45.36834        31.54413         0.44891
C         44.09008        30.85026        -0.12039
C         45.36294        33.04412         0.22173
C         44.06002        33.77234         0.20843
C         45.31557        35.91739         0.10962
C         44.11463        35.16197         0.81652
C         45.38128        37.42910         0.39158
C         44.00835        38.12243         0.08169
C         45.24958        40.33685        -0.01588
C         44.05559        39.57899         0.59959
C         45.26622        41.70114         0.63022
C         44.08902        42.33274         0.95991
C         45.29326        44.52658         1.31784
C         44.22741        43.69603         1.47172
C         45.09066        46.06137         1.67394
C         44.08961        46.67407         0.66621
C         43.83050        48.16018         0.65165
C         47.70103        27.29304        -0.78260
C         46.58280        26.77945        -0.88441
C         47.90858        28.70919        -0.27613
C         46.56480        29.43723        -0.65062
C         47.75579        31.58725        -0.35160
C         46.61907        30.87727        -0.13496
C         47.80978        33.09500        -0.26410
C         46.52939        33.72823         0.19721
C         47.89069        35.87221         0.06001
C         46.61349        35.20072         0.52951
C         47.87209        37.29447        -0.50776
C         46.50965        38.12320        -0.46162
C         47.78265        40.27895        -0.01980
C         46.60555        39.59608        -0.01196
C         47.80542        41.77058         0.15263
C         46.53712        42.46857         0.54508
C         47.90984        44.55916         1.33289
C         46.60156        43.83468         1.15493
C         47.62321        46.00869         1.37328
C         46.51538        46.52667         1.51720
C         50.29111        29.04135        -1.24327
C         49.04133        29.46518        -0.89021
C         50.30206        31.61675        -0.35759
C         49.01319        30.99064        -0.96972
C         50.32264        32.90334         0.07352
C         49.04449        33.66852         0.45751
C         50.38934        35.93152         0.27347
C         49.06313        35.18767         0.17988
C         50.31714        37.35178        -0.31227
C         49.05352        38.11601         0.05960
C         50.37601        40.24525        -0.15694
C         49.04839        39.56505        -0.50359
C         50.30206        41.53033         0.61740
C         49.17429        42.49325         0.22593
C         50.43193        44.59609         0.49716
C         49.25363        43.86944         1.14522
C         51.45794        29.56774        -1.38298
C         52.72305        31.70674        -0.58214
C         51.62322        30.71121        -0.38714
C         52.74424        32.83475        -0.08820
C         51.63725        33.69154         0.40023
C         52.73659        35.99294        -0.21562
C         51.55494        35.05004        -0.30358
C         52.72646        37.21352        -0.37985
C         51.58737        38.11871        -0.59991
C         52.81183        40.30068        -0.13259
C         51.57611        39.57663        -0.35529
C         52.74400        41.56999         0.07889
C         51.86525        42.56745         0.27804
C         51.48194        43.87156         0.39947
O         39.26999        34.37886         2.13389
O         36.27646        43.88965        -2.48588
O         41.94544        28.97751         1.27307
O         41.43759        38.68342        -0.95842
O         47.27727        43.88477         2.48403
O         43.13705        44.24169         2.11879
O         46.98478        42.45352        -0.87782
O         32.59396        39.95649        -2.36268
O         40.05810        32.72525        -1.17076
O         42.16769        26.45392         0.97063
O         40.95965        43.04921         1.91672
O         31.93221        30.80955        -0.83352
O         33.10229        33.17582        -1.24984
O         42.81598        36.85876         1.98440
O         37.90555        31.88361         1.91825
O         43.37564        33.57297        -1.08604
O         36.77979        35.70494         2.12462
O         38.15483        46.95989         0.38713
O         37.08842        40.34706         1.38096
O         50.75850        37.57199        -1.68794
O         51.74269        30.14846         0.90429
H         52.49191        29.51689         0.90335
O         50.61246        36.18654         1.68753
H         51.15646        35.46029         2.07918
O         40.24422        37.43262         2.32076
H         40.15530        38.37447         2.60230
O         35.68013        33.36893         2.19417
H         36.14315        33.91047         2.87299
O         42.53633        47.66937        -1.95204
H         42.63833        48.41008        -2.58403
O         43.72639        26.72340        -2.27516
H         44.50346        26.40213        -2.78023
O         49.71370        43.57568         2.46670
H         49.05828        43.90750         3.12100
O         44.23146        39.59138         2.02637
H         43.81509        38.79334         2.41802
O         33.11424        35.86978         1.72881
H         33.77640        36.55913         1.96207
O         40.97671        45.63568        -1.73725
H         40.41156        44.98020        -2.21472
O         34.05224        37.75575        -2.03565
H         33.41026        38.38217        -2.46384
O         44.93525        40.56066        -1.41820
H         45.61005        41.19027        -1.76729
O         35.93599        38.12330         2.08554
H         36.47533        38.81164         2.53759
O         45.67631        37.63841         1.77136
H         46.29004        36.93239         2.09425
O         32.46601        38.83720         1.90755
H         32.52432        39.81272         1.75201
O         41.74601        30.90023        -1.81657
H         41.40464        31.75831        -2.16055
O         46.60811        29.55063        -2.09345
H         45.77058        29.99014        -2.37276
O         32.66409        41.44327         0.84279
H         32.59165        42.31898         1.27769
O         39.03142        39.30924        -1.53905
H         39.92165        38.96088        -1.77966
O         46.11776        38.22885        -1.84271
H         46.88065        38.64481        -2.31021
O         36.50065        29.46637         2.36034
H         37.04541        30.24333         2.62548
O         51.29136        34.79335        -1.66196
H         51.22254        35.65710        -2.13280
O         39.45238        45.21956         1.59961
H         39.58170        44.48700         2.24842
O         38.47876        30.77545        -1.61284
H         38.61581        31.67223        -1.99673
O         40.59373        41.67636        -1.42591
H         39.76213        41.40674        -1.92274
O         46.77567        35.26073         1.97920
H         47.45954        34.58409         2.22639
O         40.01405        40.26342         1.91942
H         39.38269        40.98458         2.17109
O         47.93606        33.58391        -1.64430
H         47.09027        33.40162        -2.10796
O         39.99463        35.95345        -1.01312
H         40.66816        36.52999        -1.43470
O         44.39115        34.88644         2.19518
H         44.20961        35.70656         2.70836
O         48.05456        28.70165         1.13619
H         48.92431        28.31554         1.36868
O         43.76727        38.06969        -1.33300
H         44.15241        38.87792        -1.75580
O         38.55324        42.51454         1.53682
H         37.75440        43.09647         1.64487
O         42.59618        31.34818         1.75263
H         43.44503        31.61952         2.18342
O         44.61771        46.34196        -0.61647
H         44.02507        46.74281        -1.30301
O         45.40054        31.46963         1.89296
H         45.42691        30.50905         2.14224
O         36.00834        33.06962        -1.38879
H         35.31880        33.03156        -2.08722
O         48.86945        33.46195         1.88313
H         49.73311        33.65536         2.31633
O         45.19940        35.72528        -1.30892
H         44.66139        36.47463        -1.67634
O         50.38085        41.17590         1.93571
H         50.20066        41.95883         2.51827
O         37.02318        44.64363         1.04741
H         37.42764        45.42228         1.50405
O         48.91895        38.24148         1.47732
H         49.41576        37.50969         1.91795
O         44.62905        46.23478         2.98278
H         45.26006        45.82680         3.60958
O         48.92172        39.54658        -1.93887
H         49.56126        38.87655        -2.28926
O         39.70406        27.00863        -1.77712
H         38.92304        27.58297        -1.93806
O         39.18161        43.86805        -1.81073
H         38.66772        43.08388        -2.19680
O         34.01239        35.36922        -1.80398
H         33.14478        35.03655        -2.12896
O         44.22156        30.93005        -1.55061
H         43.97069        31.84856        -1.81928
O         49.08056        31.32125        -2.36573
H         49.02111        32.30314        -2.44667
O         44.38665        29.17484         1.68038
H         43.52084        29.21333         2.15705
O         40.89736        47.54519         1.31398
H         40.30540        46.90672         1.77593
O         31.75021        33.80889         2.12412
H         31.26977        34.58413         2.48807
O         31.17910        35.07291        -1.25906
H         30.46994        34.40696        -1.39334
O         48.18641        37.05338        -1.89842
H         47.49517        36.45264        -2.25442
O         51.73584        33.84118         1.82765
H         52.15157        33.03010         2.19130
O         49.47590        42.87323        -1.11894
H         48.63607        43.11180        -1.57365
O         35.30372        28.30473        -0.87782
H         34.43925        27.94516        -1.16787
O         38.05248        41.58522        -1.95834
O         41.01262        24.67714        -2.07912
H         40.28147        25.30132        -2.29869
