         638
 CSIRO Nanostructure Databank - Neutral Graphene Oxide Data Set
C         23.32215        69.65634        -2.42742
C         23.25833        71.14899        -2.55198
C         21.98101        71.79106        -2.04549
C         23.20181        73.91257        -1.95637
C         21.98411        73.11716        -1.79361
C         25.55315        65.51512        -1.21169
C         25.56486        66.88088        -1.39871
C         24.51825        67.55819        -2.07530
C         25.84998        69.66573        -2.03827
C         24.49349        68.97989        -2.18057
C         25.79146        71.20377        -2.24792
C         24.44955        71.80341        -1.81630
C         25.69765        74.06802        -2.32376
C         24.41381        73.31188        -2.02520
C         27.93274        61.33049        -0.36678
C         27.81547        62.74492        -0.14850
C         26.65077        63.40912        -0.47174
C         27.80063        65.62378        -0.14503
C         26.48130        64.87677        -0.21649
C         27.78886        67.00691        -0.17120
C         26.54878        67.69404        -0.61525
C         27.69456        69.99079        -0.15769
C         26.54192        69.18318        -0.75964
C         27.90096        71.34309        -0.80698
C         26.90213        71.96410        -1.56297
C         28.01676        74.11600        -1.34032
C         26.91557        73.38126        -1.73893
C         30.57024        57.20688        -0.80847
C         30.47353        58.55531        -0.40226
C         29.24033        59.25705        -0.48669
C         30.23033        61.26726         0.58905
C         29.09970        60.60734        -0.10903
C         30.15569        62.76591         0.90455
C         28.99549        63.50742         0.25645
C         30.31871        65.65089         0.04228
C         29.01225        64.88302         0.12478
C         30.22104        67.12246         0.34580
C         28.99592        67.79753         0.06209
C         30.17008        69.94027         0.23736
C         28.98235        69.20333        -0.00773
C         30.17700        71.37954         0.14659
C         29.04448        72.07450        -0.41312
C         30.26550        74.21531        -0.33888
C         29.14794        73.47893        -0.72918
C         33.10490        53.01277        -1.12702
C         33.04333        54.38483        -0.84168
C         31.86048        55.12883        -1.05680
C         32.98221        57.17504        -0.26959
C         31.78791        56.49553        -0.71725
C         32.90584        58.57735         0.04758
C         31.66780        59.22758         0.02935
C         32.82323        61.37906         0.72168
C         31.57404        60.59215         0.57799
C         32.77446        62.77308         0.88248
C         31.48085        63.47075         0.51404
C         32.72914        65.69501         0.87327
C         31.40688        64.96844         0.90054
C         32.67040        67.11713         0.88211
C         31.40101        67.81841         0.61781
C         32.56246        69.99293         0.78076
C         31.37147        69.25085         0.58925
C         32.56546        71.38818         0.61050
C         31.36807        72.09342         0.38043
C         32.68653        74.22117         0.05106
C         31.37558        73.60444         0.45755
C         35.60866        48.74441        -1.13195
C         35.34943        50.02244        -0.40207
C         34.27562        50.87125        -1.01522
C         35.40690        52.90570        -0.19580
C         34.25561        52.23880        -0.80020
C         35.34223        54.29481         0.07343
C         34.19918        55.04091        -0.26202
C         35.39539        57.14592         0.31420
C         34.17622        56.45846        -0.06111
C         35.43751        58.64142         0.10657
C         34.10602        59.31668         0.35088
C         35.34321        61.48468         0.49782
C         34.06445        60.68607         0.58823
C         35.23518        62.88447         1.07996
C         33.96573        63.54187         1.04415
C         35.10915        65.68999         1.52930
C         33.92832        64.98529         1.16138
C         35.02090        67.14886         1.72093
C         33.80980        67.84185         1.25795
C         35.10342        70.05295         1.29578
C         33.77244        69.30486         1.28398
C         35.12934        71.33582         0.53580
C         33.84728        72.05632         0.28825
C         35.14457        74.10952        -0.20013
C         33.87994        73.51362         0.02697
C         38.18911        44.52948        -1.62405
C         38.06700        45.88237        -1.19900
C         36.85481        46.54802        -1.27052
C         38.02433        48.73152        -0.87578
C         36.69891        47.89327        -0.61997
C         37.90083        50.10660        -0.27041
C         36.68559        50.78770        -0.28026
C         37.82961        52.89560         0.36180
C         36.61721        52.18467        -0.00633
C         37.76633        54.24229         0.70511
C         36.44517        54.94607         0.86866
C         37.75215        57.14655         1.04875
C         36.52009        56.45269         0.69743
C         37.77478        58.57242         1.14804
C         36.57307        59.32803         0.83453
C         37.77474        61.43681         1.24361
C         36.54127        60.68860         0.95995
C         37.70309        62.91438         1.43324
C         36.38397        63.59654         1.41516
C         37.57916        65.71020         1.91015
C         36.35421        65.01130         1.68403
C         37.64303        67.20173         2.16429
C         36.32935        67.93973         1.92518
C         37.56934        69.92215         1.03636
C         36.37649        69.32254         1.41192
C         37.60861        71.32561         0.58467
C         36.40495        72.05105         0.41769
C         37.61886        74.04531        -0.26834
C         36.38337        73.41194        -0.02222
C         40.53495        40.29799        -1.90786
C         40.45511        41.48246        -1.00429
C         39.34210        42.37214        -1.49850
C         40.43938        44.42185        -0.63010
C         39.33143        43.76124        -1.30585
C         40.42705        45.78718        -0.34990
C         39.24113        46.56289        -0.63513
C         40.35543        48.61987         0.15151
C         39.22415        47.93460        -0.41928
C         40.29350        49.99172         0.41935
C         39.09208        50.75736         0.20946
C         40.29093        52.82853         0.83043
C         39.06426        52.14341         0.47320
C         40.25275        54.34372         0.79105
C         38.95055        54.90382         1.35365
C         40.14588        57.10920         1.55563
C         38.94091        56.42364         1.28717
C         40.16180        58.51949         1.73140
C         38.95324        59.24890         1.56054
C         40.09726        61.38662         2.09563
C         38.97415        60.69759         1.69284
C         40.12005        62.84234         2.17327
C         38.78278        63.54976         2.28603
C         40.03365        65.73861         2.09902
C         38.82121        65.03887         2.05991
C         40.09593        67.11139         1.64126
C         38.83966        67.82552         1.48137
C         40.02841        69.76553         0.55815
C         38.79823        69.14063         1.06605
C         40.12015        71.27704         0.61544
C         38.82515        71.96515         0.28286
C         40.06763        73.96411        -0.47690
C         38.84435        73.33394        -0.15716
C         43.08732        36.84338        -4.29865
C         43.03362        38.06023        -3.57616
C         41.80215        38.62421        -3.18365
C         42.98111        40.51677        -2.12581
C         41.74736        39.82093        -2.41582
C         42.92333        41.79129        -1.46336
C         41.73143        42.27784        -0.99062
C         42.90771        44.34829        -0.02843
C         41.63978        43.61833        -0.36341
C         42.85865        45.80015         0.18953
C         41.61705        46.48214         0.11989
C         42.77677        48.55396         0.77239
C         41.57765        47.87457         0.38601
C         42.75323        49.95233         1.07409
C         41.39893        50.62727         1.22668
C         42.65466        52.80103         1.65419
C         41.44165        52.12643         1.05918
C         42.74955        54.29690         1.30023
C         41.43634        55.02054         1.43686
C         42.65985        57.14912         1.72103
C         41.39914        56.37075         1.63792
C         42.60890        58.57314         2.07370
C         41.38765        59.21567         2.06013
C         42.60014        61.41215         2.09127
C         41.33785        60.64473         2.54806
C         42.60037        62.84713         2.63527
C         41.28790        63.54207         2.32050
C         42.60787        65.75517         2.34862
C         41.29147        65.02131         2.40520
C         42.60763        67.26350         2.05348
C         41.32178        67.72509         1.38330
C         42.61754        69.79616         0.63788
C         41.34896        69.02632         0.71729
C         42.60561        71.10639         0.12893
C         41.30760        71.75416        -0.18790
C         42.59440        73.84716        -0.79567
C         41.29166        73.19035        -0.65713
C         45.60717        34.45690        -5.70624
C         44.37856        35.02866        -5.37552
C         45.54503        36.89613        -4.27909
C         44.31990        36.25394        -4.65661
C         45.51401        38.12754        -3.56547
C         44.26351        38.72333        -3.21802
C         45.46319        40.62135        -2.16962
C         44.22693        39.96406        -2.52261
C         45.45512        41.88595        -1.52908
C         44.16291        42.65814        -1.48051
C         45.35969        44.45528        -0.21992
C         44.18665        43.76681        -0.45981
C         45.33577        45.79368         0.34322
C         44.06811        46.47976         0.44251
C         45.24737        48.56632         1.02357
C         44.02837        47.87002         0.75782
C         45.21179        49.95283         1.31370
C         43.94222        50.61976         1.35218
C         45.15146        52.72787         2.13680
C         43.99382        52.12874         1.30115
C         45.17713        54.23566         2.07053
C         43.85050        54.95924         2.15777
C         45.15932        57.13771         2.30564
C         43.95771        56.42973         1.82745
C         45.08521        58.52228         2.51710
C         43.86088        59.24889         2.37775
C         45.10066        61.37880         2.40327
C         43.87574        60.66274         2.40585
C         45.09978        62.81763         1.90815
C         43.82981        63.60423         2.19160
C         45.10545        65.68521         1.83522
C         43.85380        64.96739         2.11030
C         45.07655        67.07795         1.44909
C         43.86373        67.77984         1.36757
C         45.07337        69.79899         0.56534
C         43.84855        69.12457         0.87413
C         45.05325        71.14527         0.10597
C         43.81379        71.80705        -0.11301
C         45.04210        73.98899        -0.67761
C         43.76694        73.19154        -0.56252
C         46.80500        35.06844        -5.33922
C         48.00352        36.92948        -4.23437
C         46.80116        36.29581        -4.61971
C         47.99473        38.15037        -3.51971
C         46.73530        38.75907        -3.18428
C         47.92912        40.62513        -2.09585
C         46.70938        39.99458        -2.47756
C         47.90840        41.86240        -1.38918
C         46.64812        42.50909        -1.12644
C         47.81501        44.47055        -0.15521
C         46.63742        43.82762        -0.51514
C         47.80689        45.81418         0.36734
C         46.53432        46.47343         0.59661
C         47.69811        48.57730         1.19166
C         46.50487        47.87313         0.96596
C         47.68970        49.98525         1.39021
C         46.44658        50.68256         1.48055
C         47.65652        52.80147         1.86137
C         46.45843        52.07954         1.76082
C         47.64177        54.24368         2.13368
C         46.36287        54.94658         2.17739
C         47.60153        57.09189         2.54746
C         46.36137        56.38703         2.38206
C         47.59484        58.50794         2.67229
C         46.31250        59.24965         3.00053
C         47.57541        61.39470         2.49485
C         46.31457        60.71314         2.60977
C         47.59111        62.84287         2.31298
C         46.29067        63.58621         2.46943
C         47.56753        65.67939         1.75770
C         46.31963        65.01299         1.95936
C         47.56320        67.06205         1.33126
C         46.32313        67.74136         1.14387
C         47.55085        69.78001         0.47342
C         46.32028        69.10754         0.73248
C         47.53883        71.14896         0.00004
C         46.29981        71.82227        -0.18472
C         47.49326        73.78395        -1.00290
C         46.29873        73.15928        -0.65348
C         49.19686        38.78668        -3.12835
C         50.38283        40.64235        -2.00146
C         49.18232        40.00777        -2.41976
C         50.35334        41.83697        -1.28404
C         49.12317        42.46143        -0.98189
C         50.28089        44.64320        -0.57607
C         49.12950        43.72548        -0.15460
C         50.27571        45.93522         0.22766
C         49.01258        46.50064         0.60008
C         50.21804        48.64425         1.21652
C         48.97569        47.80232         1.38435
C         50.19313        50.01697         1.33428
C         48.91826        50.73116         1.46522
C         50.14681        52.95454         1.52609
C         48.89341        52.11518         1.65269
C         50.11372        54.16052         2.46845
C         48.82583        54.94545         2.32441
C         50.06767        57.08978         2.60110
C         48.83464        56.37537         2.49581
C         50.05879        58.50639         2.59595
C         48.81283        59.22049         2.58980
C         50.00897        61.37701         2.00686
C         48.76992        60.65928         2.46461
C         50.04884        62.82927         2.54444
C         48.76453        63.55917         2.22716
C         50.04549        65.64322         1.68477
C         48.79012        64.97637         1.92395
C         50.10836        67.14667         1.54387
C         48.78449        67.75759         1.12564
C         50.06749        69.78607         0.48275
C         48.77303        69.08844         0.68574
C         50.05306        71.20341        -0.01161
C         48.74778        71.83872        -0.29007
C         49.99381        73.90055        -1.10282
C         48.72387        73.13180        -0.82847
C         51.64427        42.41334        -0.75347
C         52.74693        44.58138        -0.27178
C         51.60103        43.90758        -0.51522
C         52.74037        45.97975         0.12586
C         51.47292        46.58761         0.47424
C         52.72144        48.70815         0.96664
C         51.51239        47.87085         1.26914
C         52.68607        50.09344         1.21932
C         51.43330        50.78074         1.40954
C         52.63822        52.87274         1.87528
C         51.42958        52.16512         1.65858
C         52.63448        54.27454         2.24753
C         51.37180        54.99847         2.38030
C         52.57481        57.09059         3.03825
C         51.32641        56.35833         2.59421
C         52.59793        58.58326         2.74391
C         51.31210        59.26523         2.58708
C         52.49916        61.42565         2.32257
C         51.27429        60.61925         2.33354
C         52.37143        62.78860         1.74070
C         51.24207        63.53754         1.97568
C         52.57281        65.63748         1.46875
C         51.23480        64.93037         1.64546
C         52.47112        66.89271         0.63241
C         51.29104        67.63569         0.70720
C         52.43367        69.55216        -0.32884
C         51.28071        68.97368         0.24035
C         52.43010        70.93755        -0.76683
C         51.25024        71.72523        -0.69618
C         52.36030        73.57332        -1.82609
C         51.22223        73.03166        -1.24855
C         53.92366        46.67630         0.24773
C         55.13058        48.81383         0.55980
C         53.94090        48.07384         0.60423
C         55.14222        50.18689         0.91172
C         53.90380        50.83326         1.22659
C         55.12127        52.88521         1.72495
C         53.89506        52.20230         1.62706
C         55.17198        54.22898         2.38740
C         53.84066        54.95452         2.41156
C         55.03664        57.06753         2.66194
C         53.85323        56.37615         2.65310
C         55.11413        58.55027         2.55712
C         53.79099        59.26968         2.72909
C         55.10902        61.42397         2.18723
C         53.82407        60.74730         2.57556
C         55.21734        62.35655         1.15868
C         53.40306        63.38634         0.95653
C         54.90546        65.28955         0.44097
C         53.66287        64.73494         0.93271
C         54.85739        66.62901        -0.01750
C         53.64734        67.40426         0.00219
C         54.79919        69.37514        -0.99756
C         53.62640        68.76235        -0.48940
C         54.83532        70.76742        -1.30981
C         53.61770        71.52542        -1.26576
C         54.79087        73.49679        -2.16786
C         53.60776        72.87524        -1.78085
C         56.35022        50.92666         0.95132
C         57.59385        53.01611         1.43150
C         56.35741        52.27015         1.36266
C         57.62190        54.38171         1.69135
C         56.28592        55.09067         1.77085
C         57.62912        57.12259         2.65775
C         56.34696        56.37251         2.55392
C         57.58721        58.56742         3.00030
C         56.35011        59.06906         3.29108
C         57.54700        61.59845         2.39929
C         56.30287        61.17132         2.89412
C         57.54159        62.74575         1.55383
C         56.30884        63.25776         1.06081
C         57.39910        65.29191         0.27061
C         56.17988        64.58474         0.50782
C         57.38256        66.59283        -0.32183
C         56.06523        67.16502        -0.66224
C         57.30859        69.29339        -1.36246
C         56.02804        68.59485        -1.18669
C         57.27156        70.66439        -1.72091
C         56.04549        71.39284        -1.69080
C         57.23605        73.33645        -2.71551
C         56.11331        72.89409        -1.82092
C         58.82315        55.13517         1.76235
C         60.04627        57.25064         2.19473
C         58.87125        56.49801         2.14921
C         60.09547        58.64243         2.55488
C         58.84507        59.36000         2.98481
C         60.00591        61.33382         1.85055
C         58.80858        60.87078         2.67411
C         59.99838        62.78853         1.44091
C         58.75327        63.41996         1.19987
C         59.88003        65.32992         0.17044
C         58.67176        64.68199         0.54946
C         59.84782        66.65306        -0.37900
C         58.56890        67.28503        -0.61107
C         59.75463        69.32535        -1.43628
C         58.54184        68.62811        -1.16892
C         59.70146        70.61399        -1.99934
C         58.47917        71.29887        -2.13348
C         59.57393        73.07236        -3.47088
C         58.41171        72.61817        -2.75858
C         61.28329        59.33343         2.43154
C         62.49734        61.38565         1.65132
C         61.34293        60.85052         2.46310
C         62.43312        62.61602         1.00579
C         61.17589        63.36293         0.95574
C         62.30577        65.23231        -0.20102
C         61.12603        64.65396         0.33635
C         62.27285        66.56100        -0.71644
C         61.05494        67.29767        -0.70679
C         62.29992        69.27528        -1.69373
C         61.07908        68.78798        -0.92877
C         62.29087        70.69692        -2.13184
C         60.95047        71.35170        -2.32564
C         61.90391        72.77718        -4.15527
C         60.81477        72.46034        -3.31435
C         63.56895        63.18328         0.36022
C         64.65254        65.01613        -0.88371
C         63.52978        64.46717        -0.22436
C         64.62051        66.30975        -1.44938
C         63.44924        67.12737        -1.29890
C         64.68234        69.01409        -2.38667
C         63.42998        68.48426        -1.78467
C         64.68384        70.38877        -3.01419
C         63.51491        71.35932        -2.81590
C         64.14111        72.37862        -5.02468
C         63.15810        72.13641        -4.07107
C         65.72220        66.77098        -2.22365
C         66.78912        68.49906        -3.60567
C         65.74399        68.05707        -2.78531
C         66.72272        69.73600        -4.31798
C         65.62289        70.61676        -4.12900
C         66.34715        71.92447        -6.06152
C         65.38647        71.66507        -5.05640
C         67.68060        70.04317        -5.32170
C         67.49944        71.13987        -6.15898
O         34.48386        71.25378        -0.79746
O         30.68464        60.55048         1.79177
O         41.07703        72.01263        -1.58500
O         55.87697        67.43999        -2.09694
O         50.28354        70.90298         1.42586
O         56.24257        60.29071         3.97964
O         38.10878        62.41063         0.12214
O         34.28197        70.00243         2.49193
O         53.14640        61.46664         3.66926
O         54.19116        62.49092         0.22047
O         35.44141        67.68384         3.05085
O         43.52838        56.89298         0.50177
O         42.14632        43.60268         1.02605
O         59.05175        60.38093         4.01976
O         25.76141        68.57152         0.29983
O         41.99085        65.47865         3.66517
O         57.08759        56.30834         3.80374
O         61.73871        71.61868        -1.10841
O         65.30555        70.16103        -1.69709
O         40.61954        69.09525        -0.57846
O         30.67672        65.67165        -1.37063
H         30.55992        64.75926        -1.72368
O         27.31930        70.33861         1.21005
H         26.62631        69.68626         1.47838
O         45.00702        74.83342        -1.83591
H         44.87037        74.26734        -2.62290
O         52.51353        56.99160         4.50607
H         53.33446        57.38979         4.86782
O         44.94517        52.34258         3.54823
H         45.49949        52.93380         4.10142
O         42.68737        62.80614         4.09137
H         42.62216        63.74563         4.39446
O         43.43233        54.98254         3.55412
H         42.78617        54.24728         3.69945
O         50.04215        44.99474        -1.96951
H         50.76044        45.59831        -2.25282
O         25.83590        74.17794        -3.75360
H         26.07849        73.27603        -4.07809
O         61.21778        69.37883         0.41621
H         61.38168        70.34471         0.26975
O         35.58328        61.69551        -0.94938
H         36.49088        62.08937        -1.00617
O         24.32929        71.53260        -0.40715
H         23.47583        71.90189        -0.09640
O         44.30219        52.38180        -0.08933
H         45.14844        51.93049        -0.29233
O         43.04501        54.40252        -0.11170
H         43.25474        55.35730        -0.28398
O         49.93053        61.49525         0.55192
H         49.75019        60.60449         0.18490
O         59.84331        60.62299         0.57870
H         60.58239        60.89208        -0.00808
O         49.83376        74.75070        -2.24415
H         49.65459        74.18876        -3.02518
O         45.22606        62.74562         0.46410
H         44.38885        62.34270         0.13104
O         51.67535        47.44153         2.69049
H         51.89524        48.24593         3.20869
O         52.74864        42.06795        -1.59841
H         52.60012        42.47688        -2.47532
O         29.89151        62.84387         2.32774
H         30.25860        62.01252         2.72379
O         40.30853        54.71354        -0.61405
H         41.22886        54.51142        -0.91255
O         23.33252        71.47390        -3.98547
H         23.13732        72.43266        -4.07462
O         55.54958        53.99982         3.77523
H         54.84704        53.46188         4.19554
O         40.43464        71.61830         2.00333
H         39.67766        71.35139         2.56700
O         31.03191        65.16393         2.28587
H         30.48497        64.40093         2.60021
O         25.95061        71.45034        -3.67694
H         25.05867        71.30279        -4.09779
O         40.17122        41.02898         0.36905
H         40.46437        41.73770         0.98171
O         46.06971        63.66441         3.91126
H         46.86559        64.06762         4.31822
O         50.39687        67.64440         2.90055
H         50.36481        68.62626         2.86874
O         61.51528        61.34823         3.80857
H         60.76220        60.99943         4.34513
O         38.33616        63.33221         3.65894
H         38.90581        63.86592         4.25224
O         56.44295        73.39548        -0.45000
H         57.33957        73.06057        -0.23182
O         38.10309        48.87586        -2.31666
H         38.98069        49.25172        -2.53754
O         38.89115        54.55282         2.76496
H         37.97103        54.75004         3.06403
O         50.11937        53.61194         3.82032
H         50.20128        54.36003         4.44919
O         36.60094        47.69977         0.81082
H         37.33996        47.11919         1.09249
O         50.14533        53.50176         0.17294
H         50.19530        52.75203        -0.45614
O         37.93376        67.35889         3.59367
H         37.06496        67.29729         4.05569
O         48.95820        47.38931         2.79812
H         49.88081        47.09662         3.01259
O         52.96320        66.09504         2.80204
H         52.21970        66.65075         3.13980
O         25.84423        65.00902         1.10846
H         26.46479        64.63216         1.76797
O         40.99961        50.38220         2.62550
H         41.35910        51.13624         3.15649
O         55.89705        55.45523         0.42011
H         55.90109        54.63883        -0.12342
O         55.46014        58.80587         1.13259
H         55.12141        58.05614         0.59540
O         36.10278        54.73935         2.30722
H         35.81861        53.80388         2.40286
O         42.55725        61.55548         0.63978
H         42.46187        60.65803         0.25297
O         34.92337        49.78670         0.97042
H         35.44687        49.02154         1.30995
O         41.29866        60.54882         3.99124
H         41.67592        61.38221         4.36855
O         26.70900        69.13110        -3.07646
H         26.71393        69.79503        -3.80886
O         46.23707        59.23146         4.48082
H         46.94595        59.82091         4.81656
O         50.16048        62.79256         3.98875
H         51.07742        62.52536         4.21934
O         35.72229        58.84943        -1.31770
H         35.70206        59.82929        -1.46684
O         64.00625        72.38464        -1.92496
H         64.48844        71.92364        -1.20181
O         44.08461        43.36821        -2.77878
H         44.94244        43.82506        -2.91522
O         42.61289        67.95726         3.33833
H         42.15051        67.36134         3.97535
O         31.49379        63.32557        -0.94551
H         32.38488        63.57936        -1.26965
O         49.40662        43.35033         1.22713
H         48.63182        42.85811         1.57041
O         31.15142        73.94839         1.88334
H         30.33883        73.48326         2.17633
O         42.41132        52.64782         3.09078
H         43.24926        52.33071         3.52485
H         23.10661        75.00599        -2.03401
H         25.62190        75.11124        -1.92341
H         28.02898        75.20793        -1.47443
H         30.29708        75.29679        -0.54117
H         32.69598        75.30097        -0.16306
H         35.18565        75.17580        -0.46883
H         37.63643        75.09074        -0.60966
H         40.08274        75.04363        -0.68813
H         42.62174        74.91588        -1.05788
H         45.09308        74.68484         0.20839
H         47.47535        74.81458        -1.38440
H         50.16961        74.58726        -0.22750
H         52.32627        74.59587        -2.22913
H         54.76199        74.52248        -2.56563
H         57.17677        74.32203        -3.20078
H         59.47617        73.92759        -4.15649
H         61.73842        73.49824        -4.97114
H         63.92582        73.08102        -5.84477
H         66.18037        72.75251        -6.76474
H         22.38575        69.08661        -2.53818
H         21.05572        71.19940        -1.98352
H         21.05912        73.63520        -1.50063
H         24.80017        64.89219        -1.71838
H         23.64301        66.98058        -2.41128
H         27.08017        60.81027        -0.82918
H         25.77638        62.83576        -0.81539
H         29.66884        56.68412        -1.16075
H         28.37356        58.73991        -0.92513
H         32.22597        52.50694        -1.55332
H         30.96797        54.62000        -1.44969
H         35.46387        48.74220        -2.22431
H         33.39110        50.37566        -1.44242
H         37.31907        44.03712        -2.08256
H         35.97304        46.04221        -1.68963
H         39.60846        39.74300        -2.12020
H         38.49382        41.90930        -2.02582
H         42.14805        36.34251        -4.57647
H         40.86544        38.10467        -3.43375
H         45.63106        33.50888        -6.26216
H         43.44211        34.53264        -5.66813
H         47.76597        34.60457        -5.60374
H         48.96634        36.46496        -4.49448
H         50.16051        38.31868        -3.37815
H         51.35250        40.17566        -2.22884
H         51.84626        41.92213         0.23966
H         53.71288        44.05423        -0.30532
H         54.87514        46.18287         0.00050
H         56.07215        48.31728         0.28330
H         57.29510        50.43163         0.68347
H         58.53697        52.46986         1.27616
H         59.77267        54.62204         1.54091
H         60.98680        56.78467         1.86076
H         62.19147        58.77472         2.15249
H         63.46213        60.85666         1.69908
H         64.51272        62.61807         0.34773
H         65.57018        64.41641        -0.97430
H         66.56305        66.08673        -2.41129
H         67.62429        67.81492        -3.81881
H         68.55400        69.38773        -5.44774
H         68.24702        71.36525        -6.93237
