         204
 CSIRO Nanostructure Databank - Neutral Graphene Oxide Data Set
C        -11.16587         0.67494         0.15453
C         -9.93812         1.43544         0.10539
C         -8.69430         0.70970        -0.01990
C         -7.45871         1.42875        -0.03039
C         -6.23315         0.71104        -0.21265
C         -5.01281         1.44028        -0.23084
C         -3.76522         0.71753        -0.52191
C         -2.46154         1.47296        -0.38077
C         -1.21979         0.72823        -0.15378
C         -0.03078         1.40351         0.00096
C          1.22956         0.67497         0.08926
C          2.46111         1.42093         0.20619
C          3.74628         0.67131         0.46963
C          5.00012         1.41555         0.05449
C          6.21959         0.69687        -0.08798
C          7.45801         1.43592        -0.08827
C          8.68630         0.74167        -0.11890
C          9.91834         1.45101        -0.01997
C         11.14708         0.70154         0.19293
C         -9.93163         2.81997         0.16651
C         -8.70508         3.57263         0.22458
C         -7.44677         2.84275         0.14231
C         -6.21653         3.55454         0.18591
C         -4.98481         2.83226        -0.00897
C         -3.72871         3.52669         0.13806
C         -2.50454         2.88222         0.02579
C         -1.24241         3.57312         0.14593
C         -0.02050         2.84836         0.06171
C          1.20974         3.54240         0.09086
C          2.45446         2.79492         0.16303
C          3.73495         3.52799         0.30507
C          5.00574         2.81279         0.09117
C          6.21404         3.56955        -0.04744
C          7.44527         2.86592        -0.06839
C          8.69423         3.59107        -0.06148
C          9.90984         2.85168         0.00130
C         -8.71667         4.94747         0.36643
C         -7.47321         5.70419         0.72376
C         -6.20810         4.97347         0.36109
C         -5.00548         5.70071         0.39210
C         -3.75015         4.94624         0.52069
C         -2.44402         5.71500         0.52268
C         -1.21107         4.98254         0.22559
C         -0.00258         5.69018         0.04490
C          1.20178         4.95447        -0.00278
C          2.45946         5.66152        -0.27524
C          3.73762         5.01518         0.11536
C          4.99289         5.72479        -0.19391
C          6.19905         5.00937        -0.15511
C          7.46259         5.74137        -0.18865
C          8.68045         4.99747        -0.08528
C         -7.42564         7.15640         0.32467
C         -6.22730         7.83743         0.26212
C         -4.96682         7.12225         0.37204
C         -3.72507         7.84048         0.30617
C         -2.47713         7.16898         0.31371
C         -1.25471         7.85866         0.12666
C         -0.01021         7.14735         0.00553
C          1.18341         7.86688        -0.14333
C          2.45137         7.15925        -0.38189
C          3.74114         7.85944        -0.24105
C          4.94336         7.14804        -0.31991
C          6.21737         7.89898        -0.62705
C          7.45892         7.12723        -0.27676
C         -6.17391         9.27751         0.08954
C         -4.99367         9.95547         0.06326
C         -3.71975         9.27357         0.15330
C         -2.51107         9.96707         0.07778
C         -1.25315         9.29376         0.06530
C         -0.01643         9.98578         0.01688
C          1.20913         9.29560        -0.05794
C          2.48795         9.96492        -0.03191
C          3.70331         9.29030        -0.08942
C          4.98857         9.96718         0.06558
C          6.16167         9.31761        -0.10339
C        -11.16291        -0.68804         0.10117
C         -9.94090        -1.43947        -0.05855
C         -8.69698        -0.69667        -0.15171
C         -7.47778        -1.39166        -0.39512
C         -6.24451        -0.71018        -0.42230
C         -4.99191        -1.45368        -0.52416
C         -3.74851        -0.75971        -0.44761
C         -2.53208        -1.45601        -0.39881
C         -1.25944        -0.76272         0.04374
C         -0.00252        -1.40522        -0.51523
C          1.24458        -0.70363        -0.03091
C          2.49546        -1.42918        -0.07885
C          3.69459        -0.75041        -0.01409
C          4.94345        -1.45062        -0.45271
C          6.22420        -0.72991        -0.13014
C          7.41713        -1.46374        -0.11870
C          8.69005        -0.72451        -0.25737
C          9.99893        -1.46572        -0.12053
C         11.18018        -0.65309         0.23670
C         -9.94914        -2.83083        -0.07745
C         -8.75766        -3.59440        -0.29512
C         -7.53899        -2.83906        -0.65546
C         -6.21962        -3.61348        -0.72366
C         -4.96761        -2.86114        -0.56296
C         -3.73887        -3.59313        -0.52495
C         -2.49502        -2.87019        -0.48711
C         -1.22805        -3.56388        -0.43798
C         -0.01132        -2.89452        -0.29428
C          1.22631        -3.59566        -0.13163
C          2.47363        -2.88483        -0.10188
C          3.70802        -3.56786         0.04493
C          4.94709        -2.90850        -0.07819
C          6.17635        -3.60856         0.01552
C          7.42256        -2.89520        -0.04089
C          8.64986        -3.63646         0.06495
C          9.99069        -2.94488         0.23835
C         -8.71315        -4.97892        -0.22081
C         -7.47700        -5.72465        -0.25752
C         -6.24147        -5.04100        -0.39631
C         -5.00637        -5.72287        -0.23187
C         -3.77338        -5.00825        -0.41467
C         -2.54125        -5.79108        -0.55544
C         -1.19746        -5.01973        -0.61232
C          0.01628        -5.75095        -0.24625
C          1.19152        -5.01493        -0.00214
C          2.39740        -5.74689         0.39053
C          3.71576        -4.98932         0.41475
C          4.95737        -5.75475         0.26045
C          6.17325        -5.04586         0.12950
C          7.40629        -5.76885         0.13420
C          8.62896        -5.02030         0.12174
C         -7.44722        -7.12673        -0.05797
C         -6.22824        -7.82256         0.06837
C         -5.00240        -7.11913         0.01951
C         -3.72533        -7.81501         0.43079
C         -2.48248        -7.17890        -0.12360
C         -1.26984        -7.86944        -0.09005
C         -0.01293        -7.16903        -0.13985
C          1.21051        -7.89607         0.04878
C          2.43289        -7.20369         0.21663
C          3.66798        -7.88765         0.28321
C          4.92144        -7.16840         0.29599
C          6.15833        -7.88771         0.25580
C          7.37517        -7.17828         0.20326
C         -6.19375        -9.27046         0.22075
C         -5.02238        -9.96902         0.24659
C         -3.73536        -9.31088         0.21389
C         -2.54772        -9.99354         0.12512
C         -1.26700        -9.31473         0.08311
C         -0.06574       -10.00696         0.11468
C          1.20067        -9.32912         0.10821
C          2.43077       -10.01067         0.20251
C          3.66068        -9.31911         0.24665
C          4.92284       -10.00678         0.27087
C          6.11227        -9.32554         0.27186
O          3.72086         4.44363         1.47168
O         -1.20612        -0.97444         1.49106
H         -1.97799        -0.53024         1.89969
O          4.88229        -1.43128        -1.94135
H          5.71053        -1.84462        -2.26870
O          2.98945        -5.28445         1.65909
O         -7.47954         5.73828         2.22272
H         -6.61687         6.11912         2.49829
O         -3.06053         5.25720         1.78797
O         -0.02445        -1.20861        -1.95762
H          0.79163        -1.59964        -2.33399
O         -6.96674        -3.24722        -1.93877
O         -3.06050         1.22397        -1.71634
O         -1.84551        -5.51326        -1.82216
O          9.47008        -1.18938        -1.44833
O         -3.65334        -7.62666         1.90015
H         -4.41104        -8.11505         2.28756
O          2.46425         6.28873        -1.59545
O          3.84863         0.57046         1.94049
H          3.77396         1.48030         2.30176
O         10.41341        -3.09690         1.60783
H          9.65035        -2.91448         2.19355
O          6.25106         8.03237        -2.10287
H          5.36351         8.34391        -2.38383
H         12.09979        -1.17864         0.53288
H         12.05803         1.27667         0.41806
H         10.86294         3.39720         0.07109
H          9.63572         5.54389        -0.08110
H          8.41584         7.67142        -0.25582
H          7.11138         9.86104         0.01781
H          4.97940        11.02905         0.35670
H          2.49391        11.05971         0.08418
H         -0.01722        11.08611         0.03568
H         -2.52589        11.06470        -0.00352
H         -4.98971        11.04967        -0.05211
H         -7.12526         9.82311         0.00191
H         -8.37165         7.71730         0.27177
H         -9.67976         5.47921         0.41155
H        -10.88529         3.36492         0.23773
H        -12.11470         1.22196         0.25738
H        -12.11019        -1.24417         0.16186
H        -10.89894        -3.36595         0.07494
H         -9.64229        -5.53282        -0.01656
H         -8.39435        -7.68161         0.01729
H         -7.15266        -9.80885         0.24614
H         -5.04246       -11.06933         0.27545
H         -2.55491       -11.09401         0.07215
H         -0.07469       -11.10520         0.19025
H          2.43472       -11.11087         0.23437
H          4.92107       -11.10693         0.26801
H          7.06227        -9.88028         0.26928
H          8.32326        -7.73700         0.20535
H          9.58065        -5.56711         0.20063
H         10.76201        -3.46556        -0.38721
