         233
 CSIRO Nanostructure Databank - Neutral Graphene Oxide Data Set
C        -10.33846         1.20443         2.07535
C         -9.27534         1.95603         1.36548
C         -8.09051         1.17693         0.84112
C         -7.39996         1.70454        -0.36111
C         -6.31802         0.90281        -1.05124
C         -5.01699         1.56208        -1.40878
C         -3.78435         0.84657        -1.40339
C         -2.55859         1.55785        -1.53677
C         -1.30651         0.81568        -1.75685
C         -0.01317         1.57452        -1.73626
C          1.20130         0.89323        -1.22247
C          2.47334         1.59769        -1.49591
C          3.55552         0.78552        -1.79673
C          5.42570         1.86324        -1.55281
C          6.44705         0.94046        -1.14267
C          7.69076         1.62756        -0.72387
C          8.85621         0.82043        -0.26023
C          9.89463         1.47729         0.67470
C         10.70936         0.56571         1.49133
C         -9.60562         3.24598         0.72902
C         -8.88578         3.72664        -0.32390
C         -7.87376         2.86022        -0.91967
C         -6.07483         3.79786        -1.85435
C         -4.95734         2.98676        -1.52992
C         -3.73481         3.69295        -1.29093
C         -2.48566         2.97551        -1.35204
C         -1.26519         3.69737        -1.31207
C          0.02535         3.07308        -1.63812
C          1.31595         3.74653        -1.30346
C          2.51723         3.05276        -1.38752
C          3.80291         3.72783        -0.94119
C          5.18022         3.12663        -1.01990
C          6.25577         3.77631        -0.31891
C          7.56711         3.07701        -0.25355
C          8.57539         3.60269         0.70233
C          9.63514         2.84603         1.13855
C         -9.18319         5.12330        -0.90357
C         -7.96138         6.02192        -0.96017
C         -6.04461         5.18009        -1.75934
C         -4.95273         5.84798        -1.16543
C         -3.76933         5.08382        -1.03188
C         -2.57810         5.74163        -0.50195
C         -1.23180         5.01740        -0.68817
C         -0.02757         5.84829        -0.70559
C          1.24652         5.22006        -1.09606
C          2.50912         5.97427        -0.74062
C          3.75164         5.16553        -0.50616
C          5.03672         5.97418        -0.37462
C          6.19345         5.10958         0.08469
C          7.30650         5.71058         0.76278
C          8.39928         4.96077         1.14365
C         -7.55020         6.96603        -0.07589
C         -6.29502         7.72553        -0.16273
C         -5.05527         7.17952        -0.59200
C         -3.83459         7.86788        -0.28635
C         -2.57595         7.19928        -0.35712
C         -1.36140         7.85015        -0.08035
C         -0.08646         7.17665        -0.26248
C          1.13270         7.88728         0.07296
C          2.38931         7.26658        -0.03657
C          3.55647         7.85461         0.54256
C          4.83513         7.21619         0.48209
C          5.92591         7.80454         1.11849
C          7.29815         7.19144         1.04732
C         -6.29201         9.04126         0.38990
C         -5.14026         9.78807         0.50596
C         -3.86618         9.20843         0.21624
C         -2.65665         9.86844         0.50360
C         -1.40411         9.22525         0.35260
C         -0.20627         9.86763         0.73350
C          1.04092         9.20129         0.66482
C          2.19870         9.79527         1.20495
C          3.43606         9.12361         1.20079
C          4.57915         9.69500         1.83406
C          5.78602         9.03792         1.81079
C        -10.29025        -0.13870         2.23790
C         -9.20904        -0.96848         1.73132
C         -8.02803        -0.30288         1.11793
C         -7.09126        -1.15749         0.32669
C         -6.26340        -0.56439        -0.77404
C         -5.02819        -1.35233        -1.12494
C         -3.74250        -0.61611        -1.27352
C         -2.57733        -1.33937        -1.26633
C         -1.28888        -0.68194        -1.58384
C         -0.02258        -1.37640        -1.21695
C          1.21884        -0.57713        -1.01924
C          2.51361        -1.30474        -1.06182
C          3.73853        -0.58697        -1.41527
C          5.02015        -1.19408        -1.25653
C          6.28539        -0.45960        -1.14209
C          7.54178        -1.25012        -0.90714
C          8.70546        -0.62978        -0.23102
C          9.68816        -1.40744         0.41505
C         10.67536        -0.77063         1.27453
C         -9.29286        -2.33661         1.75278
C         -8.28540        -3.20537         1.17436
C         -7.21626        -2.63558         0.39511
C         -6.18471        -3.42478        -0.08687
C         -5.02826        -2.81370        -0.78719
C         -3.75494        -3.55904        -0.76484
C         -2.55106        -2.86127        -1.35060
C         -1.27177        -3.45772        -0.77730
C         -0.00788        -2.69420        -0.89707
C          1.23602        -3.30480        -0.28463
C          2.50212        -2.63025        -0.76004
C          3.73471        -3.45598        -0.96717
C          5.02183        -2.64048        -1.01740
C          6.16968        -3.39543        -0.94060
C          7.50180        -2.75506        -0.91786
C          8.59686        -3.52592        -0.25587
C          9.64501        -2.81883         0.38364
C         -8.31697        -4.57872         1.36226
C         -7.26251        -5.43154         0.89379
C         -6.14232        -4.83718         0.18020
C         -4.96502        -5.56680        -0.06527
C         -3.74738        -4.90589        -0.49749
C         -2.51409        -5.70657        -0.91543
C         -1.23097        -4.93114        -0.56953
C          0.10406        -5.63954        -0.76896
C          1.32079        -4.82259        -0.35530
C          2.49978        -5.42094        -0.04937
C          3.78872        -4.61051         0.05130
C          5.02959        -5.44639        -0.20431
C          6.13428        -4.84215        -0.71389
C          7.42219        -5.59678        -1.00153
C          8.54128        -4.90357        -0.26082
C         -7.22997        -6.76638         1.28496
C         -6.15828        -7.65654         0.88379
C         -4.94233        -7.01066         0.17421
C         -3.60423        -7.64184         0.51072
C         -2.45750        -7.15480        -0.37605
C         -1.14247        -7.84569        -0.15598
C          0.12484        -7.06099        -0.22959
C          1.29046        -7.64483         0.13193
C          2.54021        -6.85648         0.43099
C          3.79725        -7.62972        -0.00922
C          5.07977        -6.84971         0.35032
C          6.29224        -7.64245        -0.07650
C          7.35916        -7.06051        -0.66516
C         -5.90972        -8.89485         1.66215
C         -4.77367        -9.59872         1.55330
C         -3.65424        -9.18631         0.62234
C         -2.31111        -9.67320         1.11190
C         -1.11097        -9.09133         0.68719
C          0.12973        -9.66913         0.96961
C          1.35649        -9.15361         0.28581
C          2.66113        -9.67144         0.83094
C          3.82560        -9.01492         0.60446
C          5.12834        -9.64379         0.75871
C          6.27025        -9.03907         0.33593
O         -1.94345         5.04634         0.60909
O         -5.90347        -7.78837        -0.55870
O          7.71406        -5.48592        -2.42366
H          7.81428        -4.53474        -2.64339
O         -7.21458         5.86649        -2.14467
O        -10.18826         5.77547        -0.13885
H        -11.05959         5.39556        -0.36749
O          3.91654        -4.13812         1.46896
H          1.89336        -6.09549         2.16421
O         -7.96363         1.98243         2.05482
O         -6.93689        -0.07415        -1.97342
O         -6.71386        -0.66331         1.67215
O          3.74006        -7.77007        -1.44293
H          3.09341        -8.48499        -1.64643
O          3.59954         4.13994         0.50167
O          5.20563        -6.73101         1.78597
H          4.34781        -6.40211         2.14669
O          7.29953         6.97485         3.37486
H          7.41596         5.99566         3.29726
O         -5.29369        -2.33432        -2.18564
O         -2.60514        -5.79087        -2.34621
H         -1.76814        -6.18709        -2.67951
O          3.57891        -4.11489        -2.26071
H          3.70662        -3.44448        -2.96423
O          3.80721        -2.69657         1.51867
H          2.83447        -2.55970         1.69588
O          7.91076        -2.04072        -2.12649
O         -2.51589        -3.13127        -2.77480
H         -3.41372        -2.93111        -3.12687
O          8.07184         2.73549        -1.59013
O         -1.37240        -4.05836         0.58603
O          8.06572         7.48863         2.25326
O          1.11096        -3.01414         1.15519
H          0.19791        -3.29832         1.41180
O         -3.90919        -9.78561        -0.66466
H         -3.24051        -9.42390        -1.29380
O          1.33354        -9.65352        -1.11609
H          0.41597        -9.54669        -1.45118
O          1.05273         0.35311         0.13877
O         -3.29934        -7.12650         1.83912
H         -2.62306        -7.71306         2.24451
O          2.01990         5.97942        -2.11145
O          0.20878        -5.77178        -2.22304
H          1.10662        -6.10637        -2.43731
O          5.35108         6.42928        -1.72105
H          6.19255         6.92982        -1.69455
O          4.57063         1.38628        -2.54250
O         -7.33239         3.24576        -2.16505
O         -1.31086        -0.08516        -2.92711
O         10.13288         1.31364        -0.76171
O         -1.92926        -8.06347        -1.39197
O          2.56225        -6.75938         1.89307
O          0.14472         2.36330        -2.94095
H         11.33317        -1.43449         1.85486
H         11.36518         0.99245         2.26456
H         10.31094         3.26445         1.90071
H          9.20004         5.43424         1.73156
H          7.87929         7.70607         0.22990
H          6.66639         9.45798         2.31568
H          4.47741        10.66104         2.34873
H          2.12511        10.78605         1.67731
H         -0.24673        10.88804         1.14262
H         -2.68454        10.89542         0.89824
H         -5.18402        10.81383         0.89988
H         -7.25130         9.47462         0.70796
H         -8.20212         7.19810         0.77976
H         -9.54150         4.98413        -1.96311
H        -10.43040         3.84284         1.14936
H        -11.20610         1.77119         2.44533
H        -11.11969        -0.65258         2.74727
H        -10.16230        -2.81199         2.23321
H         -9.13498        -5.02984         1.94378
H         -7.96254        -7.12713         2.02319
H         -6.69931        -9.21798         2.35866
H         -4.63940       -10.52076         2.13974
H         -2.26244       -10.63593         1.64410
H          0.17684       -10.60236         1.54970
H          2.67306       -10.70027         1.22379
H          5.15359       -10.68592         1.11207
H          7.21923        -9.59705         0.33475
H          8.24008        -7.66517        -0.93223
H          9.34133        -5.48812         0.21828
H         10.43248        -3.38962         0.89706
