         424
 CSIRO Nanostructure Databank - Neutral Graphene Oxide Data Set
C          1.30780         3.43298         1.04860
C          0.09369         4.10507         1.04409
C          1.22739         6.25672         0.77989
C          0.04876         5.49891         0.91321
C          1.20542         7.71139         0.66615
C         -0.00444         8.42798         0.67702
C          1.17417        10.55436         0.54789
C         -0.01678         9.81808         0.61655
C          1.12550        12.04227         0.58758
C         -0.05667        12.78494         0.13239
C          1.24871        14.84456        -0.18311
C         -0.00103        14.11934        -0.12724
C          1.31619        16.25073        -0.77665
C          0.04650        17.05291        -0.68485
C          1.16349        19.06124         0.32600
C         -0.01214        18.31830        -0.25887
C          1.18056        20.55537         0.05170
C         -0.01514        21.27650        -0.02826
C          1.18706        23.40032        -0.11517
C         -0.01731        22.66485        -0.13504
C          1.18263        24.85587        -0.17836
C         -0.01338        25.57518        -0.41559
C          1.16241        27.70767        -0.30252
C         -0.02333        26.95480        -0.48404
C          1.16468        29.15366        -0.42413
C          0.03292        29.86374        -0.88712
C          1.28779        31.95737        -0.98882
C          0.11730        31.21097        -1.21931
C          1.53149        33.25042        -1.78213
C          0.44313        33.92916        -2.60165
C          2.10194        35.80438        -2.98904
C          0.73768        35.12001        -3.15669
C          2.06202        37.30084        -3.18705
C          3.77055         3.48044         0.90628
C          2.52056         4.15369         0.91401
C          3.70297         6.30818         0.62596
C          2.47859         5.57791         0.77547
C          3.67986         7.73105         0.50564
C          2.42791         8.43845         0.55429
C          3.67337        10.58516         0.40018
C          2.41550         9.86584         0.49892
C          3.70166        12.01164         0.43641
C          2.44782        12.79938         0.55007
C          3.75237        14.82292        -0.29722
C          2.42977        14.18187         0.03657
C          3.73654        16.32094        -0.13480
C          2.51646        17.01106        -0.24397
C          3.69060        19.13260         0.09395
C          2.47540        18.38957         0.00473
C          3.65738        20.55326         0.10297
C          2.41783        21.26387         0.04444
C          3.65565        23.43911         0.12761
C          2.41570        22.70045        -0.01196
C          3.63011        24.87419         0.21756
C          2.38661        25.57928         0.00719
C          3.58547        27.74693         0.18695
C          2.37256        27.00787        -0.03910
C          3.54628        29.15038         0.20591
C          2.35364        29.88503        -0.12983
C          3.59555        32.04131        -0.02030
C          2.36793        31.31383        -0.31006
C          3.67835        33.40015         0.11415
C          2.17017        34.37921        -1.01768
C          3.62002        36.37868        -0.84765
C          2.64084        35.49146        -1.60667
C          3.93346        37.63932        -1.61579
C          2.94143        38.11960        -2.56825
C          6.21614         3.47989         0.69945
C          4.97635         4.17700         0.76576
C          6.15163         6.34068         0.43046
C          4.94629         5.62014         0.62747
C          6.12328         7.72205         0.22080
C          4.89624         8.43619         0.30748
C          6.14304        10.59164         0.22327
C          4.89380         9.87931         0.26798
C          6.14735        12.01312         0.32875
C          4.91354        12.70493         0.39574
C          6.18841        14.89743         0.33370
C          4.86683        14.20296         0.55904
C          6.18642        16.27206         0.21475
C          4.94783        17.01185         0.09033
C          6.17906        19.16380         0.26283
C          4.94749        18.43547         0.10029
C          6.17327        20.58342         0.30670
C          4.93679        21.29881        -0.17189
C          6.09534        23.46046         0.42699
C          4.88236        22.75618         0.19699
C          6.06563        24.87855         0.58989
C          4.82569        25.58791         0.45060
C          6.02471        27.73384         0.66825
C          4.82293        27.03926         0.46156
C          6.07413        29.15240         0.59495
C          4.78928        29.86241         0.54905
C          6.13731        32.03070         0.26547
C          4.83933        31.34404         0.36869
C          6.15732        33.44735         0.11749
C          4.90630        34.11794        -0.39094
C          6.06496        36.31184        -0.22441
C          4.89812        35.63017        -0.41546
C          6.17006        37.72195        -0.59072
C          5.08923        38.31672        -1.35310
C          8.65282         3.45921         0.42640
C          7.44225         4.14465         0.54641
C          8.58231         6.23789        -0.26194
C          7.48422         5.65552         0.63561
C          8.64551         7.73631        -0.09020
C          7.34513         8.45738        -0.29769
C          8.61076        10.57800         0.23583
C          7.37916         9.90092         0.11024
C          8.61822        12.00426         0.39214
C          7.39643        12.72635         0.37754
C          8.65652        14.83904         0.53678
C          7.41541        14.15132         0.39339
C          8.67930        16.27860         0.57781
C          7.48211        17.01322         0.03673
C          8.57500        19.15904         0.73848
C          7.40904        18.46480         0.43671
C          8.57318        20.58162         0.80853
C          7.35052        21.29464         0.56865
C          8.51847        23.46415         0.81388
C          7.33639        22.75422         0.58992
C          8.50501        24.89136         0.85394
C          7.28557        25.57468         0.81655
C          8.53181        27.77368         0.97428
C          7.23766        27.02702         1.21084
C          8.53569        29.12810         0.71510
C          7.28926        29.86575         0.61694
C          8.57415        32.02796         0.49926
C          7.32311        31.30533         0.47047
C          8.56255        33.46596         0.48174
C          7.32981        34.16381         0.29302
C          8.57675        36.34341         0.26276
C          7.24732        35.66059         0.47721
C          8.57493        37.77428         0.01178
C          7.35434        38.40910        -0.40752
C         11.12314         3.40897         0.10942
C          9.90247         4.14658         0.22204
C         11.12757         6.25982        -0.43202
C          9.88202         5.53232        -0.02371
C         11.10540         7.72771        -0.03777
C          9.84911         8.42575         0.02336
C         11.08969        10.56704         0.33428
C          9.85978         9.86678         0.20311
C         11.09773        11.98310         0.50535
C          9.85624        12.70161         0.54777
C         11.10034        14.80266         1.15589
C          9.84913        14.10674         0.70274
C         11.10185        16.29186         0.94161
C          9.85223        16.97122         0.84911
C         11.09654        19.16904         0.99436
C          9.80436        18.43048         1.21636
C         11.05230        20.59412         1.02051
C          9.80406        21.26928         0.99675
C         11.02265        23.43066         0.73269
C          9.77816        22.75061         1.25265
C         11.01911        24.92356         0.74136
C          9.75305        25.64678         0.98691
C         11.03888        27.75763         1.41326
C          9.76527        27.01748         1.07306
C         11.02701        29.18182         0.92805
C          9.82109        29.83352         0.32158
C         11.01622        32.06985         0.62781
C          9.80126        31.33657         0.56858
C         11.01434        33.50336         0.59603
C          9.77969        34.20246         0.54767
C         11.03927        36.40487         0.71487
C          9.75523        35.64882         0.44039
C         11.03015        37.82522         0.19853
C          9.77550        38.47374        -0.01642
C         13.44899         3.48305        -0.73605
C         12.34123         4.08230        -0.17515
C         13.59221         6.30950        -0.17083
C         12.33676         5.55707         0.16739
C         13.56367         7.69616         0.02873
C         12.31631         8.41503         0.11947
C         13.56721        10.56785         0.26925
C         12.34507         9.85395         0.27504
C         13.57621        12.01356         0.36935
C         12.33943        12.71072         0.53220
C         13.56267        14.84693         0.66111
C         12.35829        14.11578         0.71362
C         13.56491        16.29036         0.79309
C         12.31438        17.00134         0.91679
C         13.56381        19.14334         0.93978
C         12.31630        18.45288         0.94770
C         13.59202        20.61275         1.28233
C         12.29625        21.33549         1.02125
C         13.52775        23.46249         0.73666
C         12.30928        22.71582         0.87788
C         13.52288        24.88845         0.68954
C         12.30718        25.63355         0.83575
C         13.55479        27.71366         0.90173
C         12.32028        27.01605         1.01684
C         13.58105        29.16979         1.10125
C         12.21205        29.95754         1.10994
C         13.48807        32.05294         0.57320
C         12.26725        31.38030         0.74097
C         13.45931        33.46537         0.34822
C         12.26829        34.20185         0.46597
C         13.47478        36.33677         0.12561
C         12.29538        35.64393         0.36264
C         13.48722        37.79879         0.02027
C         12.21943        38.49334         0.02644
C         15.74558         3.63104        -1.77783
C         14.47741         4.33764        -1.41991
C         15.91760         6.34492        -0.93583
C         14.71513         5.65129        -0.71414
C         16.08922         7.70229        -0.40816
C         14.82081         8.42785         0.08198
C         16.03129        10.57798        -0.09639
C         14.81814         9.89148         0.08305
C         16.10646        11.99660         0.40337
C         14.78770        12.73255         0.34641
C         16.02702        14.88095         0.37021
C         14.79402        14.14749         0.45353
C         16.02557        16.30054         0.52020
C         14.77749        17.00428         0.70913
C         16.01730        19.16971         0.67877
C         14.77413        18.44495         0.79296
C         16.01655        20.60044         0.59473
C         14.79784        21.34137         0.73795
C         15.96610        23.48695         0.30833
C         14.76735        22.74733         0.60536
C         15.98931        24.88469         0.30110
C         14.75159        25.60549         0.52177
C         15.97046        27.78178         0.15166
C         14.73578        27.01447         0.56438
C         16.01868        29.16736         0.75219
C         14.76425        29.94217         0.73905
C         16.02086        32.01225         0.41095
C         14.75820        31.32212         0.59863
C         16.01363        33.42101        -0.01825
C         14.68839        34.16749        -0.05178
C         15.93921        36.30242        -0.15236
C         14.72698        35.63588        -0.02766
C         15.95163        37.77156        -0.49537
C         14.65542        38.46976        -0.20893
C         18.13686         3.70582        -2.43114
C         16.93447         4.32970        -1.94808
C         18.17725         6.49719        -1.88666
C         17.00141         5.74072        -1.62096
C         18.20051         7.91594        -1.64680
C         17.18157         8.53540        -0.93028
C         18.34901        10.72033        -0.98273
C         17.18531         9.94414        -0.63684
C         18.39026        12.12925        -0.67918
C         17.26031        12.78952        -0.13962
C         18.44185        14.94518        -0.17825
C         17.23869        14.19557         0.01928
C         18.46970        16.33477         0.14446
C         17.24635        17.02192         0.46355
C         18.46932        19.18052         0.45829
C         17.24673        18.46465         0.55426
C         18.46636        20.58483         0.27846
C         17.22523        21.27689         0.29200
C         18.50634        23.46980        -0.08846
C         17.18293        22.71618        -0.00370
C         18.49696        24.92522         0.14031
C         17.25245        25.62408         0.21356
C         18.50491        27.75260         0.30959
C         17.26987        27.02839         0.30401
C         18.54340        29.18483         0.38317
C         17.30902        29.91432         0.72661
C         18.49323        32.08108         0.35679
C         17.24845        31.37131         0.52058
C         18.48078        33.51344         0.28267
C         17.24646        34.20644         0.11017
C         18.41647        36.36285         0.14387
C         17.20203        35.61237        -0.01683
C         18.36194        37.80889         0.21384
C         17.15751        38.48428         0.03433
C         19.29256         4.43525        -2.61754
C         20.56641         6.59153        -2.48681
C         19.33950         5.83467        -2.37143
C         20.58854         7.94054        -2.35037
C         19.30255         8.73180        -2.27466
C         20.54282        10.90222        -2.01674
C         19.42556        10.12532        -1.68917
C         20.63051        12.24512        -1.64778
C         19.56479        12.88648        -0.99775
C         20.81192        15.03483        -0.73104
C         19.62093        14.29176        -0.63929
C         20.85600        16.36898        -0.32706
C         19.70647        17.02916         0.11440
C         20.97976        19.20925         0.33503
C         19.75410        18.42327         0.70062
C         20.95203        20.54328         0.14854
C         19.72113        21.31227         0.15735
C         20.96195        23.47514         0.19878
C         19.75367        22.70773         0.10374
C         20.94965        24.84247         0.19879
C         19.72661        25.60818         0.19311
C         20.95065        27.79163         0.15367
C         19.74299        27.04383         0.23533
C         20.95159        29.16942         0.14564
C         19.74084        29.90485         0.28909
C         20.92058        32.12439         0.33243
C         19.72455        31.37380         0.33977
C         20.91210        33.51377         0.34745
C         19.70461        34.24338         0.31291
C         20.82779        36.46523         0.53817
C         19.66180        35.69658         0.31929
C         20.76986        37.86329         0.62586
C         19.56589        38.53162         0.48471
O          1.73100        12.59541         1.80978
O         15.80829         7.85539         1.01408
O         12.97009        29.63524         2.34414
O         10.89238        24.13503        -0.52997
O          1.56023        16.06746        -2.20504
O          4.63986        30.76304         1.72387
O         15.28841        33.61664        -1.28693
O          2.50085        34.12436         0.33014
O         16.74700        29.36722         1.99955
O         17.77363        23.07233        -1.30562
O          7.15281         8.47903        -1.76830
H          7.31645         7.54970        -2.07181
O          9.64763        18.41482         2.69335
H         10.43676        17.96438         3.06436
O         16.10433        37.83427        -1.97580
H         16.87804        37.27604        -2.20635
O         11.09023        14.65533         2.64217
H         11.96708        14.95568         2.96545
O         12.17226         5.65190         1.60911
H         12.98711         5.30867         2.03086
O          7.89762         5.98300         1.99482
H          7.26084         5.56691         2.61259
O         13.80048         4.75371        -2.71375
H         14.50437         5.07829        -3.31715
O          5.05996        21.28633        -1.65660
H          4.26270        21.73381        -2.01367
O          7.04375        27.00453         2.67578
H          7.05560        27.93511         2.98655
O          4.91633        33.77037        -1.83606
H          5.65747        34.26076        -2.25258
O         18.89902         8.95715        -3.67960
H         18.82369         8.07400        -4.10025
O          2.98718        35.25690        -4.00059
H          3.11748        34.30572        -3.75645
O         15.81545        28.03297        -1.28836
H         15.77231        27.16407        -1.74186
O          2.53698        32.82119        -2.77482
H          2.12668        32.11475        -3.31732
O          8.24153         5.96506        -1.66435
H          9.08661         6.03609        -2.17011
O         11.07117        36.52626         2.18765
H         10.34153        37.13042         2.44300
O          7.71143        17.04989        -1.42555
H          6.94139        17.50542        -1.82920
O          6.96333        35.85378         1.91156
H          7.67732        35.40725         2.41474
O         11.19896         6.19177        -1.89998
H         12.00363         5.67748        -2.16201
O          9.85246        22.91233         2.71122
H          9.09974        22.42466         3.10791
O          4.47022        14.48308         1.93177
H          5.08135        14.00668         2.53111
O         19.82579        18.21567         2.16036
H         19.80043        19.10070         2.58181
O          4.03826        14.63728        -1.76076
H          2.37965        15.52335        -2.30202
O         16.40397        11.85903         1.85069
H         15.78802        11.18524         2.21162
O          3.77998        13.24534        -2.09880
H          4.66816        12.92570        -2.39244
O         11.05708        27.79626         2.88372
H         11.80472        28.39274         3.13706
O         13.76189        20.63670         2.76337
H         13.66022        21.56996         3.04982
O          9.92959        29.68344        -1.14572
H          9.13564        30.10245        -1.54088
O          1.01398        18.94600         1.78669
H          1.79101        19.38004         2.19841
O          2.98091        36.82230         0.38219
H          2.72204        36.01174         0.87821
H          1.33924         2.33915         1.15414
H         -0.84498         3.54276         1.14694
H         -0.93230         5.99199         0.91967
H         -0.96397         7.90003         0.75247
H         -0.98192        10.34110         0.65724
H         -1.00509        12.24795        -0.01368
H         -0.92122        14.64037        -0.42666
H         -0.86476        16.58796        -1.09198
H         -0.98809        18.82677        -0.25716
H         -0.97977        20.75265        -0.00125
H         -0.98402        23.18083        -0.19459
H         -0.95976        25.03961        -0.56506
H         -0.97756        27.46356        -0.67360
H         -0.90732        29.33552        -1.09221
H         -0.74817        31.69176        -1.69796
H         -0.52925        33.44656        -2.78662
H         -0.00161        35.61238        -3.80875
H          1.35703        37.71091        -3.92671
H          3.78735         2.38422         1.00003
H          2.95748        39.19221        -2.82113
H          6.20250         2.37926         0.72305
H          5.28256        39.28376        -1.84418
H          8.65673         2.35903         0.46268
H          7.40959        39.46593        -0.71124
H         11.07771         2.31046         0.06211
H          9.77569        39.53626        -0.30449
H         13.45218         2.39807        -0.92561
H         12.21169        39.56306        -0.23477
H         15.70413         2.55802        -2.01842
H         14.63690        39.56464        -0.32467
H         18.12250         2.62854        -2.65057
H         17.14381        39.58407         0.07575
H         20.20367         3.93187        -2.97359
H         21.50303         6.03748        -2.65372
H         21.54519         8.47579        -2.43551
H         21.36774        10.46156        -2.59299
H         21.53319        12.80746        -1.92165
H         21.73934        14.55895        -1.07638
H         21.82121        16.89106        -0.36114
H         21.95137        18.69553         0.34109
H         21.89695        21.06772        -0.05097
H         21.92864        22.95972         0.27663
H         21.90975        25.37070         0.26424
H         21.91249        27.26898         0.06881
H         21.91068        29.69579         0.05218
H         21.89134        31.61110         0.33270
H         21.87518        34.04177         0.35813
H         21.79727        35.96867         0.67655
H         21.69226        38.42945         0.81731
H         19.52358        39.62762         0.55706
