         300
 CSIRO Nanostructure Databank - Neutral Graphene Oxide Data Set
C         30.52051        31.51337         0.97006
C         30.36901        32.73880         1.09351
C         30.20495        36.11888         0.93449
C         30.20840        37.35687         0.99958
C         30.39075        40.48220        -0.31498
C         30.49135        41.40053        -1.15482
C         32.72263        28.98264        -0.59217
C         31.79706        29.41457         0.09203
C         32.68326        31.73441        -0.28098
C         31.66321        30.61824         0.91904
C         32.63155        33.20737         0.16191
C         31.32035        33.79686         0.73237
C         32.56968        35.96044         1.36171
C         31.27665        35.17954         1.31147
C         32.60544        37.32377         0.61088
C         31.36223        38.24285         0.81102
C         32.76710        39.91484        -0.58216
C         31.42551        39.61051         0.22367
C         32.92133        41.41224        -1.04412
C         31.66869        42.15147        -1.47242
C         32.99894        44.09646        -1.44482
C         31.93799        43.45509        -1.80310
C         35.43485        27.33808        -0.23283
C         35.05923        28.74635         0.15923
C         34.12071        29.45784        -0.82148
C         35.28133        31.78734         0.04792
C         34.05270        31.07301        -0.44672
C         35.29097        33.24822         0.43754
C         33.90534        33.97859         0.45375
C         35.06983        35.92229         1.51917
C         33.83983        35.22136         1.18327
C         35.12433        37.43662         1.24541
C         33.90564        38.10801         0.71736
C         35.23477        40.14284         0.22084
C         33.95308        39.37640         0.23356
C         35.03887        41.65139         0.46572
C         34.15301        42.25868        -0.61809
C         35.03495        44.62845         0.06749
C         34.08480        43.74122        -0.69456
C         35.42875        45.83118        -0.73708
C         37.60042        27.84168        -1.26353
C         36.38346        27.16510        -1.04540
C         37.77282        28.79487        -0.04950
C         36.46619        29.52758         0.30344
C         37.75375        31.76980         0.67240
C         36.49521        31.01165         0.45158
C         37.68455        33.05751         1.19606
C         36.44431        33.77275         1.18232
C         37.64856        35.93719         1.99396
C         36.35802        35.14232         1.70413
C         37.64263        37.36726         1.65023
C         36.51492        37.89839         0.76572
C         37.82733        40.20079         0.68782
C         36.52639        39.42098         0.48933
C         37.61916        41.69864         0.91789
C         36.34088        42.42783         0.67890
C         37.74071        44.46732        -0.23260
C         36.42705        43.90699         0.28434
C         37.89457        45.86886        -0.95921
C         36.46063        46.16784        -1.31361
C         40.08535        26.02002        -3.00984
C         39.04134        26.66940        -2.94832
C         40.55163        27.63586        -0.63834
C         38.41382        27.85194        -2.39967
C         40.34399        28.96500        -0.28271
C         39.02282        29.67218        -0.12856
C         40.24496        31.45783         1.26489
C         39.03340        31.08064         0.41296
C         40.25409        32.94354         1.75184
C         38.93156        33.68504         1.76580
C         40.27872        35.92672         2.08855
C         38.96847        35.18401         2.05885
C         40.21885        37.43249         2.20894
C         38.84223        38.13439         1.91786
C         40.18531        40.33698         1.58754
C         38.87022        39.61499         1.64882
C         40.14320        41.74189         1.00808
C         38.89349        42.45912         0.68181
C         40.24125        44.18252        -0.65944
C         38.87694        43.45270        -0.47525
C         40.21059        45.03495        -1.94001
C         38.90307        45.82938        -2.08155
C         40.12141        47.22494        -3.72426
C         39.12000        46.80390        -3.02934
C         42.64693        25.86286        -3.26624
C         41.44251        25.86051        -2.35957
C         42.70218        28.24567        -1.92484
C         41.57760        27.27593        -1.67007
C         42.75547        29.46392        -1.04283
C         41.49625        29.89958        -0.38595
C         42.84159        31.75511         0.79704
C         41.57272        30.94732         0.70352
C         42.81416        33.12381         1.28909
C         41.61289        33.73871         1.97142
C         42.80248        36.05354         1.70825
C         41.51485        35.24600         1.49001
C         42.81023        37.41341         1.77168
C         41.59028        38.24630         2.21096
C         42.74109        40.32419         1.41508
C         41.46477        39.48506         1.29783
C         42.53251        41.61762         1.08319
C         41.38830        42.10810         0.29132
C         42.80256        43.80322        -1.29007
C         41.47109        43.24153        -0.67705
C         42.77885        45.29631        -1.63724
C         41.46881        45.94832        -2.01260
C         42.76844        47.41318        -3.50442
C         41.42007        47.16262        -3.00562
C         43.62523        26.60188        -3.32114
C         45.20942        27.98689        -1.85693
C         43.98377        27.95263        -2.76898
C         45.31126        29.32993        -1.02439
C         44.04557        29.78049        -0.31164
C         45.34397        31.68588         0.78327
C         44.08191        31.29698         0.01450
C         45.30316        33.01788         1.58233
C         44.09641        33.90777         1.14414
C         45.31028        36.02407         1.34401
C         44.10667        35.26643         1.91077
C         45.29856        37.51251         1.27229
C         44.13761        38.19049         2.00627
C         45.39884        40.54019         1.43207
C         44.09950        39.75835         1.77250
C         45.47105        42.02785         1.02961
C         44.27047        42.74871         0.55175
C         45.41403        43.68578        -1.33092
C         44.11863        43.45976        -0.57878
C         45.32427        44.92306        -2.26308
C         44.13059        45.79177        -2.22996
C         43.82603        46.87498        -3.16408
C         47.65026        28.36124        -2.12592
C         46.56388        27.90093        -2.49653
C         47.74043        28.88993        -0.72163
C         46.50401        29.81389        -0.58765
C         47.90776        31.79399         0.36732
C         46.60019        30.99567         0.34847
C         47.93849        32.92853         1.45001
C         46.65482        33.79413         1.53631
C         47.84257        36.06676         0.96548
C         46.63614        35.30555         1.40081
C         47.83322        37.42673         0.80510
C         46.57680        38.24899         0.89926
C         48.00940        40.52612         0.57470
C         46.62954        39.76634         0.90051
C         48.05922        41.97701         1.15997
C         46.75370        42.71040         0.73349
C         47.93894        44.05574        -1.17840
C         46.62157        43.84994        -0.33440
C         47.60499        44.57920        -2.36907
C         46.53923        45.18900        -2.84242
C         50.33586        29.00753        -0.58625
C         49.01114        29.48253        -0.17143
C         50.48559        31.43515         0.96043
C         49.11283        30.84416         0.51642
C         50.47649        33.00909         0.91246
C         49.22508        33.79233         1.25704
C         50.29543        35.98673         0.35051
C         49.17895        35.36035         1.18902
C         50.35830        37.34852         0.42680
C         49.08816        38.16763         0.35615
C         50.40197        40.02752         1.36499
C         49.20557        39.59012         0.88592
C         50.58463        42.34766         1.06889
C         49.25612        42.87027         0.71889
C         50.52871        44.18400        -0.92817
C         49.17958        43.94039        -0.41879
C         51.42586        29.53359        -0.26263
C         52.77359        31.70893         0.11019
C         51.73812        30.80764         0.22233
C         52.85693        32.97304         0.20822
C         51.57759        33.72867         0.14290
C         52.62158        36.04607        -0.38692
C         51.46628        35.17648        -0.15037
C         52.70067        37.26427        -0.20095
C         51.69992        38.02677         0.55212
C         52.75572        40.38694         0.98252
C         51.73337        39.35301         1.19803
C         52.70708        41.52659         0.50636
C         51.78363        42.61268         0.40112
C         51.59166        43.65926        -0.56174
O         50.25066        33.48054         2.25906
O         34.95476        36.94210         2.57567
O         41.30770        47.32052        -1.58586
O         48.93422        38.33271        -1.16134
O         50.52913        41.28462         1.97381
O         34.86137        34.09574        -0.65939
O         44.93921        40.38016         2.78933
O         41.52320        28.28360        -2.76613
O         36.83335        42.15299         2.03969
O         39.42904        32.97894         2.94445
O         42.47489        30.70286         1.81159
O         46.04784        43.00931         1.97949
O         39.35035        37.80505         3.25758
O         41.86675        38.56304         3.51071
O         44.94410        36.69339         0.10337
O         48.85057        29.63427         1.27047
O         46.81162        34.65403         2.70130
O         45.96395        30.65823         1.62624
O         41.97269        30.54082        -1.65997
O         36.81583        35.36970         3.06775
O         46.27699        39.03566        -0.31733
O         43.28983        42.68303         1.54055
O         39.72024        35.35780         3.30154
O         34.07787        41.56654        -1.88677
O         36.42734        30.10220         1.64397
O         52.00116        38.17219         1.98741
O         43.69394        46.11476        -0.87764
O         39.39232        40.31672         2.80080
O         39.09557        30.83669        -1.03350
O         32.70244        39.19280        -1.75137
O         34.95606        31.70098        -1.38328
O         39.64173        42.81661         1.87228
O         36.08041        39.72441        -0.88860
O         51.14269        34.17253        -1.15870
O         41.26924        41.85512        -1.15485
O         31.65557        33.91990        -0.67104
O         37.34169        44.64145         1.15454
O         31.55302        39.40763         1.64064
O         49.02983        44.29965         0.97944
O         31.85495        35.57923         2.58074
O         41.86637        33.73555         3.38541
H         41.01371        33.97917         3.82968
O         42.93792        43.14890        -2.58415
H         42.46096        42.28731        -2.53509
O         44.18473        31.95913        -1.25546
H         43.35868        31.76687        -1.76400
O         41.31290        35.16736         0.05029
H         41.40827        36.06745        -0.33130
O         38.54275        40.09603        -0.57601
H         37.89893        40.27183        -1.30326
O         44.27381        35.09466         3.30805
H         43.52939        34.54159         3.64987
O         36.72205        37.23682        -0.50972
H         36.33826        37.82132        -1.20829
O         44.40384        38.01998         3.39817
H         43.55642        38.27844         3.86508
O         40.32066        44.11272        -3.05421
H         40.17946        44.61904        -3.88499
O         41.28313        38.96510        -0.04181
H         41.06616        39.70514        -0.65314
O         48.56291        37.05340        -1.70753
H         47.59021        37.15162        -1.86119
O         45.70204        42.52532        -2.13239
H         44.98610        42.45421        -2.80276
O         40.43249        45.06040         0.44831
H         40.26489        44.56229         1.28522
O         40.00927        30.64324         2.43722
H         40.79354        30.73645         3.02393
O         44.10398        28.95551        -3.74690
H         43.27744        28.97780        -4.27372
O         46.42962        45.06677         0.35420
H         47.13858        45.16593         1.02874
O         49.47274        35.79921         2.53917
H         50.18720        35.23145         2.90952
O         38.52606        42.69705        -1.64838
H         39.12962        42.94982        -2.39340
O         38.00930        27.93766         1.10865
H         37.86183        28.48604         1.91324
O         50.67832        31.04989         2.31374
H         49.92255        31.40460         2.83996
O         44.30726        34.21449        -0.25156
H         43.54972        34.75671        -0.56378
O         45.04933        32.64958         2.93512
H         45.71393        31.97357         3.19496
O         48.03393        40.77682        -0.83259
H         47.80302        39.93954        -1.30333
O         39.82611        26.59718        -0.21991
H         39.14954        26.87160         0.45517
O         38.94141        29.00732        -2.81066
H         39.77459        28.88022        -3.31812
O         34.61166        29.33078        -2.11620
H         34.03911        29.83366        -2.73098
O         47.46753        27.75721         0.13183
H         47.86560        27.92461         1.01547
O         32.55796        36.81703        -0.73817
H         32.60090        37.59603        -1.37672
O         34.49884        44.93847         1.33319
H         35.17540        45.42318         1.85090
O         32.00745        31.57840        -1.49098
H         31.39849        32.34829        -1.60198
O         41.47167        24.83957        -1.41586
H         41.33987        23.97462        -1.85318
O         48.04249        32.26231         2.71606
H         47.93907        32.95215         3.41101
O         48.04460        32.41941        -0.92469
H         47.16319        32.57608        -1.32597
O         32.29658        30.47958         2.12805
H         32.96033        29.74711         2.07141
O         34.26819        41.75338         1.67848
H         34.88649        41.87358         2.43487
O         43.99970        28.95466         0.86561
H         44.70782        29.26426         1.48141
O         48.11326        41.84927         2.57368
H         47.39209        42.40004         2.96646
O         45.06662        26.93238        -0.93585
H         45.87690        26.91583        -0.36691
O         38.36365        46.79807        -0.01078
H         37.95152        46.59136         0.85707
O         34.41346        28.77817         1.42625
H         34.94462        28.25455         2.06164
