         640
 CSIRO Nanostructure Databank - Neutral Graphene Oxide Data Set
C         23.08359        27.43419        -1.70460
C         23.09226        28.83930        -1.57054
C         23.03453        31.80104        -1.31846
C         23.10979        33.10199        -1.62398
C         23.22794        36.08172        -1.60557
C         23.18272        37.46259        -1.32882
C         23.00368        40.23554        -0.34243
C         22.98170        41.60931        -0.16962
C         22.96347        44.53745         0.06929
C         22.96968        45.92773         0.15987
C         25.46724        24.56772        -1.43349
C         24.28827        25.28277        -1.60058
C         25.58091        27.43073        -1.69595
C         24.26115        26.69795        -1.62209
C         25.51130        28.87827        -1.23891
C         24.26221        29.55303        -1.29323
C         25.52258        31.71424        -0.96795
C         24.20303        30.99097        -0.81058
C         25.55697        33.10417        -1.08096
C         24.41585        33.85221        -1.73230
C         25.48636        35.91256        -0.71252
C         24.34768        35.30587        -1.30741
C         25.36825        37.29228        -0.25213
C         24.21546        38.09385        -0.64244
C         25.44171        40.21770        -0.14102
C         24.21638        39.51284        -0.34376
C         25.41969        41.64522        -0.04825
C         24.17825        42.34873        -0.04494
C         25.40244        44.49299         0.18519
C         24.16599        43.79548         0.07122
C         25.40852        45.91493         0.34198
C         24.17219        46.63393         0.30033
C         25.34238        48.76487         0.54735
C         24.20006        48.08379         0.31453
C         27.94522        23.07558        -0.77446
C         27.90716        24.48487        -0.99251
C         26.71893        25.20039        -1.21679
C         27.99305        27.43848        -1.09003
C         26.68280        26.69445        -0.94650
C         27.98122        28.82313        -0.94462
C         26.71299        29.54128        -0.93543
C         27.96574        31.66965        -0.70500
C         26.73265        30.97846        -0.81330
C         27.97007        33.08840        -0.62915
C         26.76168        33.80916        -0.79772
C         27.94621        35.92321        -0.27192
C         26.72809        35.23088        -0.59005
C         27.96765        37.34021        -0.11601
C         26.72576        38.07439         0.04347
C         27.91926        40.23164        -0.17710
C         26.70503        39.53382        -0.10981
C         27.90232        41.67625        -0.11123
C         26.65567        42.36233         0.02014
C         27.87070        44.49552         0.23094
C         26.64433        43.78235         0.15186
C         27.86129        45.92104         0.37825
C         26.63342        46.61494         0.49138
C         27.86381        48.81897         0.67764
C         26.60181        48.04780         0.97401
C         27.96175        50.16594         0.96676
C         30.38724        23.08848        -0.42119
C         29.12202        22.41499        -0.52011
C         30.44042        24.49368        -0.61536
C         29.21334        25.17686        -1.07223
C         30.50708        27.38081        -0.83500
C         29.25077        26.69190        -1.17425
C         30.52750        28.85375        -1.13503
C         29.21871        29.56039        -0.84755
C         30.45625        31.68637        -0.58853
C         29.21272        30.94172        -0.68892
C         30.44119        33.07038        -0.48129
C         29.20272        33.80759        -0.45006
C         30.41568        35.90781         0.23066
C         29.17935        35.19590        -0.25864
C         30.42517        37.39220        -0.04246
C         29.19849        38.08165        -0.11820
C         30.40503        40.22799        -0.17033
C         29.18524        39.52255        -0.15976
C         30.39473        41.71650        -0.47540
C         29.10958        42.40129        -0.10294
C         30.34618        44.51636         0.30950
C         29.11358        43.80019         0.12489
C         30.31712        45.92614         0.42996
C         29.10222        46.62856         0.38927
C         30.33144        48.84745         0.24228
C         29.03796        48.11103         0.06902
C         30.35404        50.25480         0.34774
C         29.13535        50.90321         0.72383
C         32.78989        20.25801         0.08421
C         31.61218        20.95175        -0.02227
C         32.84583        23.06907        -0.16172
C         31.60039        22.36728        -0.18852
C         32.85513        24.50334        -0.19345
C         31.64359        25.21729        -0.42664
C         32.87530        27.40967        -0.23156
C         31.65713        26.68037        -0.52054
C         32.91570        28.80439        -0.27352
C         31.73363        29.56789        -0.59276
C         32.93884        31.67890        -0.23198
C         31.71181        30.95021        -0.49682
C         32.95058        33.08056        -0.25321
C         31.72095        33.83865        -0.67578
C         32.89431        35.94785        -0.05654
C         31.70332        35.24682        -0.15623
C         32.89808        37.39346         0.05700
C         31.65028        38.09806        -0.00443
C         32.89453        40.22537        -0.04611
C         31.64284        39.53078        -0.07725
C         32.88373        41.69882        -0.14784
C         31.61364        42.44167         0.03696
C         32.85354        44.49181         0.81766
C         31.59952        43.78252         0.32587
C         32.87456        45.97989         0.56853
C         31.56596        46.71799         0.76429
C         32.80839        48.85400         0.30956
C         31.57376        48.04270        -0.01520
C         32.82522        50.24485        -0.27280
C         31.56457        50.99724         0.10124
C         32.78680        53.10716        -0.20820
C         31.63305        52.41449         0.07106
C         35.31440        18.80784         0.28796
C         35.27351        20.18766        -0.00871
C         34.05304        20.92065        -0.00348
C         35.33397        23.05366        -0.08076
C         34.06846        22.34551        -0.08709
C         35.30752        24.50566         0.02517
C         34.09707        25.19559        -0.01100
C         35.36046        27.37472         0.24865
C         34.03768        26.65736         0.36188
C         35.35357        28.81912         0.22833
C         34.14729        29.52262         0.01852
C         35.37496        31.67326         0.11412
C         34.15216        30.95221        -0.01960
C         35.38045        33.09698         0.08494
C         34.15791        33.80874        -0.07569
C         35.37002        35.95682         0.06665
C         34.15420        35.23979        -0.07039
C         35.37011        37.38766         0.10933
C         34.12306        38.09955         0.07925
C         35.38414        40.24978         0.15493
C         34.11795        39.53964         0.05262
C         35.41441        41.66543         0.19942
C         34.17399        42.43102         0.01236
C         35.35032        44.52893         0.50132
C         34.15764        43.84681         0.41538
C         35.35623        45.98420         0.55821
C         34.06605        46.65848         0.51845
C         35.37263        48.85772         0.28381
C         34.09670        48.14150         0.51970
C         35.36782        50.25782         0.07867
C         34.06676        51.03571         0.20052
C         35.35277        53.15675        -0.13232
C         34.09003        52.40756        -0.49481
C         35.38083        54.55324        -0.08267
C         37.76790        18.79652         0.25950
C         36.50549        18.12021         0.38525
C         37.79196        20.16293         0.00954
C         36.53857        20.88004        -0.43793
C         37.82825        23.10354        -0.37645
C         36.53344        22.35930        -0.15291
C         37.77614        24.53692         0.10106
C         36.56430        25.21848         0.18495
C         37.81270        27.37030         0.73137
C         36.53988        26.66096         0.33972
C         37.82244        28.84278         0.42443
C         36.59982        29.53827         0.30628
C         37.83726        31.67973         0.29991
C         36.60758        30.96456         0.23804
C         37.84080        33.10914         0.27390
C         36.61100        33.81833         0.18005
C         37.84039        35.95306         0.23965
C         36.60600        35.24178         0.16275
C         37.83643        37.38765         0.25664
C         36.60904        38.09313         0.20546
C         37.84149        40.24059         0.42698
C         36.60722        39.53357         0.26921
C         37.85247        41.66992         0.43709
C         36.62200        42.38045         0.34505
C         37.82570        44.51418         0.53589
C         36.62339        43.81978         0.42236
C         37.82938        45.97947         0.90098
C         36.54724        46.69476         0.54752
C         37.82532        48.82732         0.26629
C         36.58083        48.13181         0.36419
C         37.82101        50.24137         0.07630
C         36.58273        50.96230        -0.02044
C         37.79153        53.14159        -0.10421
C         36.57110        52.42865        -0.08874
C         37.81439        54.55887        -0.02363
C         36.58459        55.24243         0.02043
C         40.19848        15.91866         0.65152
C         39.02076        16.62965         0.46313
C         40.23318        18.76147         0.59098
C         39.00423        18.03867         0.42749
C         40.23908        20.15974         0.44757
C         39.09832        20.86554        -0.23021
C         40.22813        23.04927         0.33416
C         39.05924        22.34732         0.08059
C         40.22539        24.49213         0.24549
C         39.03846        25.23241         0.19528
C         40.25834        27.38755         0.25504
C         39.07184        26.66770         0.30763
C         40.29466        28.81978         0.40309
C         39.05186        29.54264         0.41542
C         40.31000        31.67879         0.39347
C         39.06806        30.96829         0.36386
C         40.32140        33.10022         0.37760
C         39.07481        33.82744         0.31752
C         40.35335        35.99547         0.15379
C         39.06142        35.23641         0.30085
C         40.26789        37.40318         0.65984
C         39.07832        38.09298         0.50069
C         40.29811        40.24778         0.68525
C         39.06883        39.53949         0.58849
C         40.31087        41.67239         0.60229
C         39.07968        42.38590         0.51041
C         40.30353        44.53394         0.55577
C         39.07422        43.81632         0.53219
C         40.30186        45.98147         0.48386
C         39.09445        46.69881         0.50150
C         40.30759        48.82899         0.26801
C         39.07851        48.11512         0.33943
C         40.29424        50.25741         0.11720
C         39.06769        50.93555        -0.01343
C         40.35172        53.14297        -0.28878
C         39.04213        52.38110        -0.29672
C         40.31612        54.60953        -0.04606
C         39.07932        55.29372         0.05548
C         40.29940        57.38546         0.39623
C         39.10695        56.69271         0.27774
C         42.65320        15.88000         1.00452
C         41.43259        16.59213         0.83379
C         42.69680        18.68143         0.96241
C         41.45592        18.01950         0.83457
C         42.67241        20.13580         1.17766
C         41.38904        20.92499         0.92104
C         42.68382        23.07899         0.81757
C         41.48363        22.38328         0.67110
C         42.75798        24.48616         0.46599
C         41.51273        25.16425         0.08753
C         42.79298        27.39368         0.25943
C         41.52843        26.69459         0.00084
C         42.77851        28.80375         0.38457
C         41.52478        29.51878         0.40288
C         42.77636        31.65416         0.49864
C         41.54032        30.95088         0.44052
C         42.78560        33.08221         0.56020
C         41.55839        33.80369         0.47941
C         42.76239        35.90720         0.84474
C         41.57718        35.22901         0.57720
C         42.73575        37.31793         1.30763
C         41.41419        38.09286         1.35962
C         42.73066        40.24414         0.98463
C         41.53282        39.55028         0.92708
C         42.77073        41.66988         0.78319
C         41.54430        42.38565         0.64663
C         42.77695        44.52143         0.52793
C         41.53485        43.81849         0.58214
C         42.77642        45.96532         0.44166
C         41.55538        46.68520         0.41117
C         42.78334        48.83272         0.44209
C         41.55488        48.12116         0.36615
C         42.78679        50.28453         0.44648
C         41.53967        51.00152         0.21253
C         42.74408        53.17714         0.43271
C         41.54773        52.38723         0.11429
C         42.81036        54.56410        -0.17525
C         41.52543        55.31137         0.06323
C         42.78972        57.39594         0.42343
C         41.53934        56.70986         0.28806
C         43.85863        16.54348         1.11113
C         45.18389        18.68164         1.08334
C         43.91901        17.96301         1.06905
C         45.11479        20.08935         0.53215
C         43.97437        20.87377         1.18957
C         45.27765        23.13527         1.06515
C         43.95331        22.37390         1.17030
C         45.21797        24.47074         0.36406
C         43.94625        25.21337         0.38641
C         45.24942        27.35913         0.36005
C         43.99787        26.65251         0.28011
C         45.24523        28.78624         0.41870
C         44.01158        29.51044         0.44051
C         45.24439        31.65212         0.51001
C         44.01441        30.93840         0.49783
C         45.25225        33.07929         0.58152
C         44.01741        33.79584         0.64489
C         45.25553        35.93110         0.83709
C         44.01891        35.21467         0.80982
C         45.28888        37.35770         1.01295
C         44.03598        38.06411         1.42094
C         45.24789        40.19243         0.82499
C         43.99818        39.60260         1.52823
C         45.28057        41.70275         0.87269
C         44.01185        42.39024         0.74073
C         45.27067        44.49884         0.20237
C         43.99111        43.79701         0.56697
C         45.25653        45.98153         0.47326
C         44.02214        46.67719         0.46272
C         45.25875        48.79688         0.60548
C         44.01611        48.11059         0.51060
C         45.24153        50.25077         0.79679
C         43.98112        50.97645         0.62252
C         45.30651        53.16226         0.37492
C         44.04260        52.44577         0.69165
C         45.28995        54.58093         0.18968
C         44.05887        55.31537         0.21230
C         43.99588        56.70875         0.39764
C         47.63626        18.83952         1.27589
C         46.40167        18.12432         1.39306
C         47.71340        20.13642         0.81460
C         46.45175        20.84140         0.47898
C         47.76154        23.05783         0.74998
C         46.47275        22.33730         0.55181
C         47.74891        24.43237         0.73967
C         46.52806        25.19502         0.37311
C         47.69764        27.37718         0.58410
C         46.50346        26.67178         0.44130
C         47.71455        28.80272         0.50837
C         46.47727        29.50741         0.45394
C         47.71124        31.64576         0.43648
C         46.48001        30.93567         0.46922
C         47.71410        33.07441         0.45285
C         46.48400        33.78985         0.56882
C         47.72344        35.92275         0.61249
C         46.48918        35.22137         0.66797
C         47.73186        37.35704         0.71016
C         46.49445        38.04332         0.94572
C         47.78462        40.22594         0.96047
C         46.52367        39.49735         1.34968
C         47.78717        41.70210         1.29578
C         46.48929        42.40145         0.91506
C         47.72572        44.52748         0.64006
C         46.51898        43.80803         0.68374
C         47.72812        45.95309         0.48672
C         46.48498        46.67675         0.50596
C         47.73677        48.83435         0.43247
C         46.48914        48.11222         0.55835
C         47.76217        50.24289         0.31414
C         46.55854        51.02157         0.62361
C         47.71338        53.10698        -0.13201
C         46.51104        52.45442         0.26417
C         47.68572        54.51971        -0.27426
C         46.52503        55.23514        -0.07548
C         50.20840        20.18982         0.67783
C         48.96940        20.88290         0.75568
C         50.24532        23.00354         0.73455
C         48.99428        22.29880         0.77469
C         50.27249        24.43286         0.77011
C         49.00231        25.17103         0.96600
C         50.22446        27.39126         0.58958
C         48.97437        26.67626         0.85800
C         50.20585        28.78636         0.45532
C         48.95088        29.50954         0.47087
C         50.17779        31.64423         0.26561
C         48.94970        30.92756         0.38959
C         50.17751        33.06806         0.23759
C         48.94735        33.78368         0.36419
C         50.19395        35.90332         0.35089
C         48.95919        35.21009         0.44089
C         50.26272        37.36180         0.73433
C         48.93873        38.07974         0.63191
C         50.26265        40.20072         0.70491
C         48.94068        39.51308         0.72040
C         50.30155        41.69168         0.82422
C         49.01850        42.43783         0.82825
C         50.21360        44.52141         0.32698
C         48.98773        43.80118         0.66479
C         50.19498        45.98258         0.29142
C         48.95791        46.67489         0.39116
C         50.19054        48.80756         0.14760
C         48.96164        48.10565         0.32155
C         50.17676        50.21149        -0.16251
C         48.94579        50.93202        -0.07602
C         50.11202        52.95826        -0.79069
C         48.92572        52.34393        -0.32693
C         51.40859        20.86130         0.57100
C         52.70561        23.00880         0.46640
C         51.46716        22.28263         0.58883
C         52.70061        24.41806         0.55149
C         51.47916        25.13450         0.66587
C         52.72505        27.36975         0.75764
C         51.48486        26.61429         0.31645
C         52.71043        28.84533         0.55390
C         51.42398        29.52987         0.32843
C         52.65577        31.65111         0.06140
C         51.41781        30.93035         0.21627
C         52.63935        33.05898        -0.04840
C         51.40460        33.77832         0.08936
C         52.62866        35.92845        -0.12321
C         51.39554        35.20419         0.11432
C         52.59629        37.34491        -0.27507
C         51.41365        38.10347         0.09161
C         52.54801        40.24626        -0.42197
C         51.43397        39.48106         0.12968
C         52.53745        41.62004        -0.43575
C         51.59954        42.41545         0.46934
C         52.48876        44.59464        -0.61780
C         51.35527        43.83041         0.01524
C         52.63234        45.90190         0.10082
C         51.42605        46.68709         0.31330
C         52.64625        48.89734         0.09719
C         51.43532        48.12080         0.26333
C         52.63004        50.17742        -0.52692
C         51.36335        50.87852        -0.58233
C         51.28905        52.24456        -0.93748
C         55.10731        23.02898        -0.09869
C         53.94548        22.34317         0.16812
C         55.19785        24.44617         0.03593
C         54.00178        25.13334         0.54529
C         55.20335        27.37109         0.10621
C         54.03714        26.64822         0.63941
C         55.14958        28.80318        -0.06120
C         53.95600        29.53632         0.16797
C         55.08466        31.63492        -0.43043
C         53.90057        30.93256        -0.04887
C         55.06090        33.07269        -0.51644
C         53.86578        33.77613        -0.27720
C         55.05797        35.94170        -0.49786
C         53.84322        35.21963        -0.31663
C         55.00159        37.35559        -0.63141
C         53.77011        38.03557        -0.64273
C         55.00395        40.20449        -1.07658
C         53.67221        39.47110        -1.11296
C         54.97370        41.64836        -1.32753
C         53.65899        42.39379        -1.03464
C         54.99994        44.47059        -0.67970
C         53.77675        43.82312        -0.70746
C         55.10731        45.82333        -0.14552
C         53.88570        46.31085         0.46293
C         55.13140        48.85991        -0.05281
C         53.91907        48.42362         0.48261
C         55.06878        50.02970        -0.83644
C         53.85908        50.71318        -0.98345
C         57.60985        24.51787        -0.49806
C         56.37597        25.18976        -0.20387
C         57.54945        27.35597        -0.62003
C         56.36205        26.64250        -0.21665
C         57.53720        28.76969        -0.75607
C         56.31428        29.50644        -0.51196
C         57.41222        31.60902        -1.36876
C         56.26609        30.90359        -0.69536
C         57.46850        33.09058        -1.07502
C         56.29332        33.78938        -0.77244
C         57.50935        35.92013        -0.90686
C         56.30500        35.22987        -0.68521
C         57.56938        37.38122        -0.73689
C         56.25227        38.13141        -0.61549
C         57.47579        40.27407        -1.13316
C         56.21721        39.56878        -0.95980
C         57.47049        41.68957        -1.29908
C         56.22587        42.40341        -1.27805
C         57.41870        44.55477        -1.15634
C         56.22311        43.80044        -1.06204
C         57.44785        45.93204        -0.81251
C         56.27703        46.57425        -0.24352
C         57.63153        48.73162        -0.19773
C         56.38800        48.02873         0.27716
C         58.75384        25.20616        -0.79408
C         59.93282        27.33545        -1.20661
C         58.75342        26.63416        -0.87535
C         59.92843        28.71592        -1.29832
C         58.74110        29.46094        -1.09630
C         59.89864        31.63966        -1.38686
C         58.73578        30.89921        -1.22615
C         59.88025        33.04363        -1.48627
C         58.69909        33.78313        -1.30611
C         59.84315        35.98146        -1.63274
C         58.70731        35.23366        -1.27730
C         59.84743        37.38813        -1.63763
C         58.75216        38.12137        -1.19984
C         59.90638        40.31703        -1.34798
C         58.71720        39.57379        -1.20436
C         59.88927        41.70618        -1.48133
C         58.68304        42.40921        -1.48108
C         59.87220        44.66028        -1.69140
C         58.59440        43.88393        -1.83200
C         59.86038        45.98075        -1.37248
C         58.66064        46.66112        -0.97380
C         58.69546        48.07307        -0.71559
O         43.25179        53.05411         1.78505
O         54.29670        25.83201         1.82396
O         53.96424        47.35668         1.40161
O         46.45647        21.67325        -0.74718
O         48.97833        25.99352         2.19572
O         33.59143        42.20862        -1.35942
O         52.67114        28.20929         1.92731
O         54.02753        42.03398        -2.40808
O         25.85732        37.55541         1.09238
O         41.58486        25.87411        -1.20679
O         46.01767        50.72359         1.95451
O         44.07615        21.59893         2.43916
O         43.44779        37.42229         2.59823
O         45.94368        24.62340        -0.88336
O         39.74029        52.73113        -1.55583
O         57.06517        37.84913         0.57280
O         33.31327        48.73205         1.65985
O         50.49909        40.85226         2.03272
O         29.37867        25.84507        -2.38943
O         41.80640        20.52048         2.27882
O         23.99977        30.88451         0.64062
H         24.07301        31.78696         1.01685
O         33.90639        51.33558         1.60417
H         33.76417        50.47386         2.06944
O         31.84608        33.98358        -2.14991
H         31.90329        33.07837        -2.52561
O         26.52850        47.96793         2.44747
H         25.70259        47.48753         2.67019
O         37.82558        27.28971         2.21858
H         37.08577        27.84760         2.54253
O         31.44983        47.01964         2.17763
H         31.57972        46.17359         2.66179
O         30.48356        41.80702        -1.94658
H         31.43188        41.72535        -2.19170
O         45.64529        23.52116         2.42040
H         45.30439        22.82534         3.03108
O         58.28837        43.89790        -3.28205
H         58.12907        44.83188        -3.53585
O         50.58186        37.36145         2.17788
H         49.83376        36.93143         2.64474
O         32.85739        50.04115        -1.71448
H         33.08965        50.91289        -2.13371
O         31.59906        47.68673        -1.42904
H         31.94579        48.47898        -1.91488
O         30.67343        28.92264        -2.60958
H         30.06923        28.25044        -2.99537
O         34.18431        52.25502        -1.95609
H         35.11123        52.01937        -2.17606
O         46.52382        39.48800         2.81506
H         46.92373        40.35215         3.10951
O         47.87889        41.77284         2.78007
H         48.80035        41.48542         2.99588
O         56.52361        47.97274         1.72120
H         55.67782        47.61239         2.07963
O         51.63363        26.60794        -1.15974
H         50.86271        26.13783        -1.54352
O         40.53265        36.14379        -1.32073
H         40.47508        35.24427        -1.70949
O         42.91002        54.32415        -1.62192
H         42.80755        55.18683        -2.07616
O         41.00778        38.15259         2.75974
H         41.84337        38.24308         3.27931
O         53.31203        39.38481        -2.52948
H         53.38141        40.30570        -2.88660
O         26.33582        26.79073         0.47237
H         27.00263        26.29080         0.98752
O         32.77577        44.36410         2.29600
H         33.57244        44.80044         2.66852
O         24.74421        33.88761        -3.16302
H         24.89696        32.96424        -3.45509
O         28.82557        48.12449        -1.40789
H         29.67981        47.80878        -1.79754
O         25.95362        27.46240        -3.10495
H         25.20175        27.84201        -3.60541
O         30.35207        35.79551         1.71244
H         29.52542        36.24123         1.99845
O         36.56435        20.79627        -1.95328
H         36.73264        21.71648        -2.27818
O         45.33900        44.38930        -1.28573
H         44.55876        44.86638        -1.64236
O         57.09806        31.52331        -2.82080
H         57.83522        31.96327        -3.29628
O         52.10096        44.84399        -2.01360
H         51.26672        45.36033        -1.99292
O         43.98049        39.96789         2.91911
H         44.81714        39.61791         3.31755
O         52.37257        42.57908         1.69995
H         52.08088        41.85226         2.30287
O         37.86559        45.99549         2.38194
H         37.11115        45.45568         2.70055
O         33.75651        26.64709         1.82223
H         34.46918        26.12330         2.24805
O         39.35322        20.79521        -1.71271
H         38.51902        20.44307        -2.11415
O         45.16102        39.83134        -0.58263
H         44.56033        40.46601        -1.02737
O         37.97131        23.18734        -1.86671
H         38.74252        22.61664        -2.11158
O         44.63838        19.92719        -0.83443
H         45.12977        20.57858        -1.39132
H         22.11777        26.91132        -1.77318
H         22.12592        29.36161        -1.58734
H         22.04316        31.32239        -1.29662
H         22.19199        33.63014        -1.92616
H         22.37100        35.62816        -2.12143
H         22.30579        38.03714        -1.65767
H         22.05312        39.69782        -0.46152
H         22.01022        42.12031        -0.15721
H         21.99706        44.02521        -0.02555
H         22.02005        46.48064         0.12066
H         25.42200        23.47063        -1.49052
H         23.34066        24.73480        -1.71633
H         25.33832        49.86462         0.54378
H         23.26484        48.62105         0.09463
H         27.00805        22.50222        -0.78391
H         27.09436        50.69488         1.38884
H         29.07850        21.33000        -0.36048
H         29.12282        51.98707         0.89859
H         32.74906        19.16555         0.18182
H         30.66861        20.39189         0.00652
H         32.74192        54.20381        -0.25869
H         30.72017        52.99541         0.27149
H         34.38288        18.26225         0.49192
H         34.44614        55.12753        -0.12147
H         36.47810        17.05071         0.62943
H         36.55465        56.33751         0.08097
H         40.18028        14.81939         0.65666
H         38.08995        16.06443         0.32206
H         40.28986        58.47009         0.57510
H         38.16885        57.25527         0.36986
H         42.62810        14.78072         1.02124
H         42.78139        58.47983         0.60463
H         44.78787        15.96490         1.20815
H         44.92230        57.26903         0.59092
H         48.55115        18.31963         1.59258
H         46.45041        17.09019         1.76362
H         48.60175        55.06645        -0.53309
H         46.54326        56.32648        -0.20022
H         50.21017        19.09123         0.65426
H         50.11709        54.02754        -1.03915
H         52.33261        20.27496         0.48124
H         52.18854        52.76770        -1.28915
H         55.99061        22.45294        -0.40649
H         53.95528        21.24927         0.07281
H         55.98019        50.44238        -1.29202
H         53.86426        51.67390        -1.51642
H         57.64773        23.42131        -0.45694
H         57.71122        49.80512         0.02715
H         59.69110        24.66557        -0.99001
H         60.85849        26.77268        -1.39415
H         60.86139        29.23008        -1.56450
H         60.87857        31.14268        -1.39755
H         60.83900        33.56180        -1.61849
H         60.75500        35.46679        -1.96317
H         60.74937        37.90230        -1.99733
H         60.87427        39.79835        -1.36525
H         60.84356        42.23385        -1.61258
H         60.81313        44.19235        -2.01357
H         60.79771        46.55780        -1.38573
H         59.62263        48.61851        -0.94914
