         410
 CSIRO Nanostructure Databank - Neutral Graphene Oxide Data Set
C         28.29441        27.56775         2.36191
C         28.22295        28.99244         2.09286
C         27.06432        29.71165         2.47421
C         27.94365        31.76229         1.52193
C         26.95868        31.07856         2.27212
C         27.87957        33.19475         1.23722
C         26.83628        34.00888         1.64252
C         27.84526        36.09915         0.77473
C         26.82585        35.41315         1.42068
C         27.88117        37.54542         0.70479
C         26.78166        38.35186         0.97669
C         27.89704        40.42570         0.24852
C         26.77952        39.74120         0.72238
C         27.87414        41.79902        -0.19100
C         26.64377        42.56777        -0.11860
C         27.79222        44.66284        -0.69770
C         26.58212        43.90033        -0.35570
C         27.88749        46.08206        -0.31655
C         30.71202        27.52496         1.94988
C         29.43143        26.84572         2.21347
C         30.60470        28.95947         1.39940
C         29.26639        29.64906         1.38960
C         29.94122        31.70413         0.11972
C         29.03079        31.00594         1.00090
C         30.14800        33.05229         0.07477
C         28.93042        33.82543         0.40323
C         30.16839        35.96191        -0.41078
C         28.91239        35.30392         0.12300
C         30.24345        37.44591        -0.30268
C         29.15853        38.20433         0.39286
C         30.34777        40.33606        -0.47418
C         29.18715        39.72478         0.20889
C         30.29286        41.68880        -0.81017
C         29.06531        42.41077        -0.61613
C         30.34795        44.56695        -0.46065
C         29.07436        43.87857        -0.83467
C         30.35215        46.02170        -0.22480
C         29.08802        46.70445        -0.15168
C         33.26095        24.70544         1.85927
C         32.04291        25.38283         1.93345
C         33.17740        27.46053         1.39335
C         31.97834        26.76577         1.72551
C         33.10127        28.83913         0.97593
C         31.84038        29.43231         0.72837
C         32.91368        31.49163        -0.08646
C         31.83820        30.59703        -0.04404
C         32.73749        32.97128        -0.15934
C         31.41237        33.66886        -0.46888
C         32.75569        35.94139        -0.53081
C         31.45743        35.17478        -0.61082
C         32.73545        37.34996        -0.53748
C         31.54180        38.13818        -0.46198
C         32.77126        40.21433        -0.95528
C         31.54220        39.53140        -0.61052
C         32.74648        41.56982        -1.36339
C         31.47956        42.41449        -1.45612
C         32.83025        44.71737        -0.86467
C         31.64081        43.83078        -0.78799
C         32.82670        46.00529        -0.26202
C         31.58035        46.67125         0.02988
C         32.83881        48.70376         0.57030
C         31.64822        48.03358         0.47398
C         35.80169        23.19576         1.46236
C         35.75404        24.65712         1.58729
C         34.45760        25.37981         1.57832
C         35.61328        27.47218         0.83806
C         34.42740        26.77509         1.31490
C         35.51296        28.84499         0.45973
C         34.26615        29.53805         0.54243
C         35.34822        31.64335        -0.25358
C         34.17971        30.91578         0.16907
C         35.27526        33.02851        -0.53763
C         34.02519        33.77526        -0.28612
C         35.24282        35.85829        -0.83546
C         34.00470        35.22375        -0.61302
C         35.29345        37.31989        -0.68569
C         34.00750        38.09644        -0.54324
C         35.24246        40.21153        -1.09510
C         33.99557        39.52088        -0.93655
C         35.23549        41.62008        -1.37618
C         33.98198        42.12424        -1.72951
C         35.30354        44.74731        -1.04973
C         34.03334        44.29477        -1.45072
C         35.30577        46.05658        -0.47057
C         34.06831        46.71706        -0.17363
C         35.31731        48.81062         0.23332
C         34.08369        48.08655         0.22676
C         35.36851        50.21738         0.46448
C         38.17455        23.22792         0.78971
C         36.95537        22.54551         1.16937
C         38.16239        24.62560         0.63186
C         37.00640        25.40862         1.10600
C         37.91941        27.40131        -0.07017
C         36.83998        26.79044         0.63082
C         37.77385        28.75284        -0.50284
C         36.60954        29.49982        -0.17544
C         37.51418        31.46945        -1.38172
C         36.51212        30.87660        -0.55377
C         37.36727        32.85202        -1.71152
C         36.38547        33.69478        -1.14546
C         37.72803        35.86365        -1.18783
C         36.47226        35.15597        -1.14501
C         37.76970        37.30483        -0.95762
C         36.48462        38.02797        -1.28624
C         37.64434        40.23593        -0.58184
C         36.45830        39.50329        -1.03061
C         37.72199        41.70328        -0.89553
C         36.48862        42.45517        -1.37328
C         37.72966        44.60543        -0.88063
C         36.51363        43.95565        -1.15599
C         37.76234        46.03585        -0.60706
C         36.54141        46.73765        -0.33945
C         37.78016        48.84353        -0.05607
C         36.54621        48.13024        -0.03597
C         37.78704        50.26139         0.10650
C         36.54864        50.91565         0.37820
C         40.56882        20.37194         0.34511
C         39.42272        21.07227         0.61752
C         40.51141        23.18503        -0.02182
C         39.36025        22.49058         0.45281
C         40.45675        24.59023        -0.28076
C         39.26173        25.30306         0.02388
C         40.21977        27.31615        -1.03927
C         39.14808        26.68851        -0.32385
C         39.90979        28.53940        -1.67317
C         38.76735        29.32962        -1.35776
C         40.51669        31.80496        -1.97734
C         38.58195        30.65274        -1.83999
C         40.34798        33.11796        -1.54490
C         39.20145        33.92636        -1.81033
C         40.23958        35.91775        -0.90680
C         39.01289        35.20898        -1.25962
C         40.22678        37.35378        -0.69685
C         38.92943        38.00404        -0.65253
C         40.17414        40.19628        -0.03551
C         38.88531        39.45052        -0.27619
C         40.17795        41.70035        -0.06795
C         38.89997        42.45857        -0.36803
C         40.21139        44.53491        -0.59440
C         38.98853        43.89147        -0.70906
C         40.27149        46.01996        -0.87927
C         38.98324        46.72406        -0.51523
C         40.23960        48.83462        -0.20123
C         39.00178        48.12526        -0.26377
C         40.24307        50.25522        -0.11210
C         39.01812        50.98361        -0.00937
C         40.25454        53.09131        -0.12969
C         39.06596        52.41236        -0.02170
C         42.95789        20.33908        -0.27531
C         41.75425        21.04976        -0.06913
C         42.92549        23.15737        -0.59305
C         41.72847        22.46296        -0.24785
C         42.86625        24.58632        -0.84415
C         41.61850        25.28603        -0.77835
C         42.74855        27.37594        -1.43865
C         41.53211        26.66968        -1.14132
C         42.83341        28.83957        -1.51615
C         41.78553        29.63650        -1.95963
C         42.79285        31.63943        -1.02836
C         41.69010        31.03155        -1.66293
C         42.70115        33.01356        -0.53086
C         41.40414        33.74590        -0.73028
C         42.72423        35.87936        -0.70430
C         41.42111        35.21436        -0.73173
C         42.71988        37.38744        -0.69151
C         41.42165        38.04956        -0.54670
C         42.71886        40.24504        -0.40025
C         41.46939        39.47480        -0.16195
C         42.67294        41.64372        -0.44873
C         41.45796        42.39523        -0.30194
C         42.70272        44.52705        -0.43142
C         41.45385        43.80259        -0.44934
C         42.67434        45.94682        -0.19825
C         41.49712        46.68320        -0.29747
C         42.68125        48.82849         0.03294
C         41.48199        48.11154        -0.13985
C         42.71786        50.24921        -0.09679
C         41.48470        50.96541        -0.14278
C         42.73955        53.06249        -0.23895
C         41.49787        52.38724        -0.17624
C         44.12301        21.02008        -0.58238
C         45.41803        23.13659        -0.90238
C         44.13339        22.42389        -0.71536
C         45.36924        24.62696        -1.09182
C         44.04613        25.29998        -1.16438
C         45.25950        27.45148        -1.53783
C         43.98610        26.68057        -1.42827
C         45.25298        28.83138        -1.02453
C         44.02772        29.52199        -1.08989
C         45.19218        31.60484        -0.43162
C         44.00749        30.92875        -0.84847
C         45.16216        33.03923        -0.21004
C         43.95476        33.76374        -0.32169
C         45.14285        35.89591        -0.00643
C         43.95502        35.16975        -0.29032
C         45.14986        37.36354        -0.05511
C         43.96403        38.08683        -0.31042
C         45.20755        40.17825        -0.45730
C         43.96259        39.50950        -0.40102
C         45.21791        41.59903        -0.83675
C         43.91161        42.38604        -0.78350
C         45.18233        44.53598        -0.39742
C         43.95263        43.84913        -0.52618
C         45.21669        45.91994        -0.02239
C         43.92529        46.59607         0.22886
C         45.19366        48.83401         0.23569
C         43.92319        48.12542         0.35121
C         45.21502        50.20052        -0.07312
C         43.95782        50.94821        -0.14989
C         43.93493        52.35726        -0.23860
C         47.79438        23.11285        -1.59167
C         46.63595        22.43872        -1.37310
C         47.85377        24.55623        -1.50203
C         46.54966        25.24483        -1.84155
C         47.78218        27.42369        -1.08976
C         46.58318        26.75874        -1.65499
C         47.71226        28.78876        -0.70814
C         46.45456        29.49800        -0.71652
C         47.62010        31.55087         0.02083
C         46.41627        30.88774        -0.36782
C         47.54582        32.95880         0.44264
C         46.33642        33.74925         0.13519
C         47.57476        35.84473         0.67076
C         46.32326        35.15384         0.28238
C         47.59924        37.42331         0.53838
C         46.37043        38.09018         0.09087
C         47.68397        40.18902        -0.16909
C         46.41536        39.47783        -0.20554
C         47.71524        41.59236        -0.31794
C         46.51436        42.33365        -0.74032
C         47.70246        44.47876        -0.01829
C         46.48499        43.84620        -0.55244
C         47.67340        45.90583         0.20636
C         46.41598        46.61677         0.14742
C         47.69559        48.78263         0.20397
C         46.43671        48.07053         0.61928
C         47.66659        50.09709        -0.20777
C         46.46901        50.83379        -0.28272
C         50.30347        24.60833        -1.20827
C         49.02241        25.26897        -1.26153
C         50.17077        27.36450        -0.52589
C         48.99444        26.70133        -0.97220
C         50.12281        28.75447        -0.19581
C         48.89420        29.46961        -0.29156
C         50.08826        31.57691         0.29274
C         48.84858        30.86666         0.04630
C         50.10812        32.96198         0.46973
C         48.85937        33.70815         0.63390
C         50.10522        35.89968         0.89978
C         48.84166        35.16774         0.54686
C         50.11513        37.35668         0.44178
C         48.89489        38.07744         0.32667
C         50.15107        40.18703         0.02427
C         48.90884        39.47340         0.02937
C         50.14158        41.59902        -0.03443
C         48.92427        42.31451        -0.14163
C         50.12788        44.41972         0.40995
C         48.90911        43.75646         0.02998
C         50.03079        45.79967         0.99982
C         48.85851        46.57565         0.48225
C         50.07378        48.67229         1.04908
C         49.00404        48.04156         0.19335
C         51.45231        25.28146        -0.92638
C         52.61740        27.32197        -0.14190
C         51.44654        26.66775        -0.52713
C         52.51047        28.63649         0.60560
C         51.31266        29.44733         0.19782
C         52.57592        31.55672         0.47992
C         51.33000        30.83862         0.32327
C         52.59770        32.95966         0.47900
C         51.34498        33.70586         0.48627
C         52.60706        35.79965         0.31251
C         51.33417        35.09248         0.52734
C         52.61406        37.29794         0.24831
C         51.33267        38.03786         0.32909
C         52.62830        40.12663         0.33901
C         51.38818        39.46105         0.20102
C         52.70570        41.58355         0.17939
C         51.40507        42.35534        -0.02007
C         52.57314        44.44956         0.75611
C         51.36056        43.77168         0.39807
C         52.54792        45.86393         1.02822
C         51.32438        46.56975         1.02422
C         51.20869        47.97069         1.32584
C         55.05727        27.32272         0.16524
C         53.92569        26.73693        -0.29564
C         55.03310        28.61304         0.94172
C         53.79574        29.41519         0.63291
C         55.06899        31.51756         0.67051
C         53.81686        30.80671         0.59083
C         55.07839        32.94124         0.70020
C         53.84738        33.66600         0.59800
C         55.07107        35.80928         0.71493
C         53.86954        35.08452         0.58026
C         55.06384        37.27222         0.75899
C         53.86804        38.00115         0.57279
C         55.04950        40.13413         0.92462
C         53.84583        39.42080         0.64335
C         55.04047        41.58926         1.03612
C         53.86881        42.30847         0.72130
C         54.99227        44.41790         1.27532
C         53.80686        43.72369         0.88490
C         54.96321        45.84075         1.41531
C         53.79315        46.53670         1.28167
C         56.29663        29.39900         0.76527
C         56.29124        30.75179         0.68489
C         56.28439        33.69224         0.82861
C         56.27932        35.06844         0.84802
C         56.24552        38.00603         1.02964
C         56.23358        39.38875         1.11212
C         56.19459        42.31035         1.44787
C         56.17684        43.68875         1.53323
O         39.31710        42.22544         1.00601
O         52.28707        42.07203        -1.15239
O         33.94765        43.32479        -2.44769
O         31.09708        43.82594         0.56573
O         37.94316        39.80409         0.80157
O         28.35618        34.37002        -0.86222
O         47.46099        36.74832         1.83614
O         45.99555        27.42347        -2.83508
O         29.81679        36.81181        -1.55859
O         28.39845        44.36663        -2.02386
O         33.38805        33.53836         1.02993
O         45.69357        24.08707         0.21705
O         41.70419        33.12930         0.57257
O         30.68133        30.89612        -0.73705
O         38.21860        33.41522        -2.67795
O         42.91495        36.65614        -1.95952
O         40.86206        39.71287         1.17030
O         48.05597        33.20600         1.79264
O         37.51933        41.97048        -2.31813
O         31.37662        34.28075        -1.78656
O         36.71596        25.21808         2.53427
O         46.73619        43.22576        -1.86988
O         44.48316        41.92240        -2.05525
O         30.93663        28.68006         2.81394
O         39.50829        31.19352        -2.75437
O         43.83771        47.24126         1.54962
O         52.66986        36.50300        -1.00871
O         34.88278        37.80413         0.61811
O         29.61124        39.07195         1.46729
O         40.75588        29.01230        -2.68509
O         31.16478        42.62760        -2.84754
H         31.98441        42.93649        -3.29300
O         50.13894        35.99814         2.37583
H         49.22734        36.26318         2.65154
O         49.71407        45.55158         2.44009
H         50.50785        45.13406         2.83841
O         52.24784        28.24555         2.01001
H         53.11677        27.94033         2.37680
O         46.31876        24.95343        -3.24538
H         46.08668        25.81223        -3.67724
O         36.31148        37.85569        -2.74026
H         37.01631        38.36166        -3.19705
O         40.41888        46.15934        -2.33985
H         39.63362        45.74301        -2.75509
O         54.96506        28.22953         2.38150
H         55.08970        29.05306         2.90099
O         46.43876        48.00672         2.09280
H         45.55388        47.64426         2.34701
O         49.49585        48.11124        -1.19730
H         50.37243        47.67081        -1.22088
H         27.36083        27.06222         2.65127
H         26.26697        29.17820         3.01170
H         26.08759        31.61795         2.66766
H         25.99321        33.58074         2.20269
H         25.99159        35.98055         1.85617
H         25.83145        37.89050         1.27942
H         25.82258        40.26731         0.83743
H         25.72093        42.04576         0.16797
H         25.63717        44.44606        -0.21468
H         26.95352        46.64297        -0.16383
H         29.40657        25.75410         2.33617
H         29.08688        47.77547         0.09437
H         33.27187        23.62709         2.06614
H         31.13926        24.81443         2.19087
H         32.82831        49.74300         0.92500
H         30.72500        48.55782         0.75476
H         34.87938        22.61330         1.59585
H         34.44521        50.76970         0.68423
H         36.92875        21.44890         1.12322
H         36.53117        52.00169         0.54037
H         40.59782        19.28087         0.47686
H         38.54313        20.52232         0.97531
H         40.26338        54.19047        -0.15859
H         38.13090        52.98642         0.03006
H         42.97017        19.24743        -0.14807
H         42.75242        54.16112        -0.27947
H         45.05836        20.45473        -0.68851
H         44.87739        52.91982        -0.27946
H         48.70567        22.54164        -1.82359
H         46.61832        21.34558        -1.48299
H         48.60935        50.58915        -0.48875
H         46.51674        51.89274        -0.56687
H         50.36029        23.53766        -1.44652
H         49.98867        49.73291         1.32485
H         52.40163        24.72940        -0.93326
H         52.05474        48.49329         1.79849
H         56.03220        26.84007         0.00098
H         54.01716        25.78755        -0.84407
H         55.89751        46.36798         1.65687
H         53.79763        47.62693         1.41352
H         57.24912        28.84848         0.77368
H         57.25221        31.27961         0.60921
H         57.24646        33.17142         0.92143
H         57.23847        35.59264         0.95084
H         57.19843        37.48392         1.18495
H         57.18088        39.90378         1.31860
H         57.12230        41.77652         1.69107
H         57.08405        44.23280         1.83314
