         344
 CSIRO Nanostructure Databank - Neutral Graphene Oxide Data Set
C          1.29847         3.36138         0.19854
C          0.08502         4.01141         0.08516
C          1.20670         6.15813        -0.21862
C          0.03872         5.40551        -0.12120
C          1.13083         7.64318        -0.51936
C          0.00170         8.37123         0.16464
C          1.21002        10.51012         0.00120
C          0.02935         9.71355         0.30467
C          1.16088        11.91104         0.00440
C         -0.04135        12.68649         0.11065
C          1.17726        14.81674        -0.21165
C         -0.02410        14.05760         0.07435
C          1.16537        16.28542        -0.30241
C          0.01430        17.02260        -0.07148
C          1.21675        19.15014        -0.05956
C          0.05019        18.43544         0.08185
C          1.33411        20.60730         0.34220
C          0.05049        21.38207         0.40774
C          1.20732        23.49691        -0.07626
C          0.02232        22.72914         0.22951
C          1.24899        24.92409         0.04047
C          0.10925        25.63825         0.53524
C          1.35394        27.72815         0.60668
C          0.15635        26.98720         0.79066
C          1.38452        29.12773         0.86313
C          3.76286         3.43391         0.23698
C          2.51521         4.08972         0.09002
C          3.69351         6.23461        -0.30814
C          2.46635         5.50204        -0.14510
C          3.65176         7.64962        -0.42946
C          2.44166         8.37607        -0.32531
C          3.70319        10.49477        -0.30468
C          2.45074         9.78726        -0.22631
C          3.71931        11.96097        -0.12056
C          2.41417        12.69286        -0.02610
C          3.57299        14.79955        -0.94900
C          2.36504        14.13275        -0.34803
C          3.60407        16.29099        -0.73875
C          2.40947        16.99073        -0.51262
C          3.56307        19.15108        -0.81997
C          2.42617        18.45094        -0.45657
C          3.53911        20.64170        -1.05937
C          2.36840        21.36306        -0.44056
C          3.58857        23.46615        -0.92808
C          2.36588        22.74190        -0.47251
C          3.59620        25.02126        -0.84563
C          2.44495        25.66288        -0.21864
C          3.71354        27.80883        -0.05342
C          2.52680        27.05942         0.12084
C          3.74155        29.19509         0.26624
C          2.54084        29.84808         0.69082
C          6.20886         3.48098         0.44891
C          4.97615         4.13884         0.20271
C          6.15951         6.27138        -0.10670
C          4.95345         5.56210        -0.11674
C          6.23703         7.62875        -0.62640
C          4.89020         8.38315        -0.71501
C          6.16710        10.55559        -0.57736
C          4.90101         9.83910        -0.56458
C          6.13343        11.99018        -0.62932
C          4.93553        12.70187        -0.53272
C          6.09962        14.85525        -0.76899
C          4.88967        14.10936        -0.68496
C          6.06360        16.29926        -0.86956
C          4.83701        16.97904        -0.90914
C          6.09864        19.16976        -1.00694
C          4.80203        18.43362        -1.30336
C          6.08698        20.67357        -1.16658
C          4.83107        21.28629        -0.51308
C          6.03876        23.47384        -0.13674
C          4.85701        22.77645        -0.75544
C          6.17522        24.93178        -0.51138
C          4.93970        25.71958        -0.82246
C          6.21585        27.78974        -0.03615
C          4.95997        27.23932        -0.69839
C          6.20448        29.18392         0.25448
C          4.97067        29.89619         0.26410
C          8.62746         3.60500         0.97744
C          7.41018         4.19943         0.64716
C          8.59509         6.48483         0.73857
C          7.32049         5.67752         0.58889
C          8.64640         7.85472         0.23623
C          7.55668         8.40104        -0.65165
C          8.61871        10.65771        -0.29605
C          7.40001         9.89587        -0.50037
C          8.60941        12.03728        -0.44234
C          7.39465        12.71222        -0.99969
C          8.55970        14.91645        -0.68476
C          7.34020        14.18790        -0.73165
C          8.51665        16.35002        -0.76957
C          7.30924        17.02731        -0.86981
C          8.55757        19.20921        -0.87004
C          7.27935        18.49026        -0.88770
C          8.56282        20.65837        -0.73650
C          7.34958        21.36114        -0.68393
C          8.54575        23.41777        -0.08254
C          7.34384        22.73341        -0.35561
C          8.54278        24.84059         0.22549
C          7.39798        25.59919         0.00585
C          8.54049        27.66498         0.73971
C          7.38118        27.03300         0.21086
C          8.54128        29.05822         0.94039
C          7.39884        29.81408         0.68277
C         11.02413         3.70834         1.52805
C          9.84252         4.35361         1.19071
C         11.05382         6.53671         1.05810
C          9.85205         5.78460         1.00284
C         11.03596         7.93356         0.81295
C          9.83871         8.58256         0.37246
C         11.07446        10.72234         0.09443
C          9.84061         9.99309         0.08778
C         11.08486        12.11123        -0.18502
C          9.79196        12.84914        -0.00230
C         11.03906        14.94495        -0.71363
C          9.79696        14.25601        -0.51763
C         11.03679        16.32045        -0.92009
C          9.80302        17.08362        -0.51673
C         11.01053        19.26591        -1.05301
C          9.74362        18.52410        -0.93073
C         11.03450        20.65076        -0.55260
C          9.79239        21.33506        -0.45233
C         11.01546        23.36581         0.22653
C          9.78468        22.71696        -0.11892
C         10.96236        24.74718         0.67506
C          9.77499        25.44688         0.69294
C         11.02433        27.58783         1.10731
C          9.70777        26.84847         1.26768
C         11.03065        29.01003         1.16192
C          9.75414        29.71372         1.54257
C         13.52519         3.73628         1.38981
C         12.28175         4.44849         1.87723
C         13.50611         6.58719         1.35031
C         12.29490         5.89006         1.41033
C         13.55468         7.96758         1.02401
C         12.26882         8.75067         1.09706
C         13.52827        10.69963         0.09082
C         12.30453        10.05820         0.35775
C         13.53184        12.06937        -0.36201
C         12.30089        12.79814        -0.41026
C         13.51875        14.89044        -0.85192
C         12.29527        14.20621        -0.68840
C         13.55968        16.31993        -1.06560
C         12.27104        17.00229        -1.46426
C         13.53806        19.18637        -0.80605
C         12.29277        18.51891        -1.24491
C         13.51545        20.55061        -0.42549
C         12.25142        21.29286        -0.28226
C         13.49781        23.21486         0.76480
C         12.22302        22.64772         0.16934
C         13.51511        24.73096         0.81782
C         12.21751        25.39149         1.22838
C         13.45843        27.59371         0.91408
C         12.22437        26.88855         1.02462
C         13.45166        29.01977         0.89479
C         12.21829        29.70988         1.03702
C         15.92847         3.67559         0.96426
C         14.71880         4.38478         1.32992
C         16.06054         6.56448         1.38654
C         14.76185         5.84849         1.76691
C         16.04580         7.95590         0.88160
C         14.77303         8.65352         0.74752
C         15.99886        10.55650        -0.36773
C         14.76100         9.98952         0.28247
C         16.02276        12.06043        -0.51144
C         14.75622        12.75741        -0.62812
C         15.96597        14.85102        -1.20703
C         14.73556        14.15481        -0.80900
C         16.02098        16.32698        -1.11597
C         14.75786        17.02945        -1.08173
C         15.98471        19.17344        -0.75432
C         14.76331        18.48482        -0.91313
C         15.98260        20.54102        -0.39586
C         14.74686        21.20520        -0.20127
C         15.99629        23.24925         0.54834
C         14.70945        22.70035        -0.01977
C         15.99931        24.71570         0.86099
C         14.69007        25.43279         0.82370
C         15.90819        27.61560         0.84688
C         14.70852        26.89351         0.86673
C         15.89038        29.03961         0.84425
C         14.68508        29.72215         0.84216
C         18.33911         3.56984         0.41460
C         17.15190         4.28135         0.84039
C         18.46397         6.42020         0.49421
C         17.28177         5.74145         1.04576
C         18.50025         7.83038         0.50627
C         17.24992         8.57113         0.56555
C         18.46506        10.65029         0.08338
C         17.28830         9.96709         0.14166
C         18.47419        12.15556        -0.03836
C         17.22242        12.71331        -0.66660
C         18.56926        14.81477        -1.45868
C         17.25534        14.06455        -1.25214
C         18.49923        16.29246        -1.08630
C         17.24190        16.99080        -1.06271
C         18.52300        19.15447        -0.69854
C         17.25924        18.50125        -1.20493
C         18.52310        20.52978        -0.36730
C         17.25808        21.25448        -0.21175
C         18.49639        23.32947         0.46053
C         17.25648        22.56953         0.19246
C         18.43929        24.81991         0.40930
C         17.25977        25.46490         0.67262
C         18.27200        27.65410         0.01013
C         17.26826        26.95330         0.92765
C         18.36650        29.13049         0.32989
C         17.18527        29.80933         0.97931
C         19.50033         4.21624         0.11246
C         20.79918         6.35016        -0.14233
C         19.60409         5.66457         0.14491
C         20.86602         7.74216        -0.02332
C         19.73105         8.50151         0.29152
C         20.97693        10.70606         0.05819
C         19.75011         9.99658         0.56238
C         20.96731        11.97715        -0.39981
C         19.76085        12.76171        -0.56259
C         20.99795        14.87062        -1.02947
C         19.79009        14.09317        -0.92885
C         20.94772        16.23657        -1.07682
C         19.71010        16.97919        -0.99806
C         20.94505        19.10027        -0.49860
C         19.73235        18.42317        -0.74588
C         20.95697        20.46358        -0.23777
C         19.76101        21.19017        -0.14440
C         20.97042        23.46657        -0.08235
C         19.80303        22.62331         0.25149
C         20.89257        24.81787        -0.10487
C         19.66752        25.56582         0.12517
C         20.75976        27.75320        -0.37506
C         19.61855        26.94879        -0.02524
C         20.69410        29.11915        -0.38699
C         19.50639        29.81250         0.04838
O         16.00888        23.70115         1.93958
O         11.66455        19.19455        -2.40257
O         17.06352         6.27030         2.42281
O          7.59516         6.33018         1.87701
O          5.82945        25.26304        -1.89603
O         19.27599        22.83893         1.61522
O          5.55829         7.83022        -1.90996
O          3.23937        12.41299         1.19971
O          3.35089        24.32089        -2.09896
O         16.44346        14.22167        -2.46984
O          9.46777        26.71678         2.70275
H          9.40276        27.63482         3.06303
O         14.71176         5.83840         3.22922
H         15.64972         5.75535         3.53065
O          9.92990        17.16213         0.96830
H          9.81110        16.24997         1.31513
O          0.85011         7.72431        -1.96280
H          0.81840         8.67507        -2.20157
O         13.55414        22.70992         2.11878
H         12.95753        23.27813         2.66098
O         18.42853        12.61428         1.36702
H         19.04487        12.02930         1.87263
O          3.38241        14.63463        -2.42098
H          3.85265        15.37753        -2.85963
O          9.62208        29.61017         2.98360
H         10.44905        29.94649         3.38749
O         17.47814        29.93326         2.38907
H         17.67204        29.01990         2.71262
O         17.29173        18.72783        -2.66667
H         18.03415        18.19533        -3.02560
O          9.62882        13.00269         1.47580
H          9.78506        12.12034         1.87869
O         19.76689        10.16029         2.02963
H         19.07494         9.56897         2.39805
O         12.35111         4.45417         3.34399
H         13.19412         4.92067         3.58190
O          6.00914        20.96255        -2.59196
H          6.78611        20.54900        -3.02392
O         12.19560        16.77045        -2.90957
H         11.82994        17.60117        -3.30206
O          1.90921        20.56107         1.72941
H          1.60923        21.37380         2.19129
O          4.69871        18.41479        -2.77865
H          4.39665        19.32426        -3.04039
O         12.16351        25.15484         2.68559
H         12.83620        25.73275         3.10455
O          4.89743        20.97367         0.91166
H          3.97282        20.89877         1.25427
O          5.79574        23.48483         1.31058
H          5.65206        22.53941         1.57192
O         17.72233        27.55380        -1.34074
H         18.35188        27.99515        -1.94900
O          3.46086        20.83724        -2.50057
H          3.75699        21.75231        -2.70304
O         15.90507        10.07356        -1.76491
H         15.14748        10.53560        -2.18430
O          7.51501        12.59654        -2.48010
H          6.68983        12.96391        -2.86399
O          8.09890         8.20048        -2.00607
H          7.32890         8.26298        -2.61915
O         12.14964         9.14311         2.53580
H         12.19962         8.31425         3.06066
O          4.96859        27.76676        -2.06104
H          5.49422        27.12915        -2.59699
O         18.83066        14.83666        -2.90167
H         17.94521        14.78692        -3.33863
O         17.74976        27.13114         2.29996
H         17.35478        26.42473         2.85456
O         14.57597        23.26801        -1.35979
H         15.08010        22.71025        -1.98867
H          1.33731         2.27617         0.37083
H         -0.85407         3.44537         0.15851
H         -0.94152         5.89230        -0.21792
H         -0.90570         7.81712         0.44533
H         -0.84736        10.22673         0.72601
H         -1.00635        12.17370         0.23059
H         -0.97799        14.59113         0.18513
H         -0.95008        16.51969         0.08023
H         -0.88409        18.93764         0.36806
H         -0.87974        20.86274         0.67800
H         -0.94091        23.24683         0.33966
H         -0.83064        25.10165         0.71726
H         -0.73961        27.50863         1.15763
H          0.46472        29.62308         1.20655
H          3.77508         2.35246         0.43990
H          2.56734        30.92596         0.90560
H          6.21112         2.38812         0.57687
H          4.97688        30.96968         0.50568
H          8.67487         2.51079         1.08303
H          7.39901        30.89505         0.88676
H         11.01766         2.61811         1.67955
H          9.80040        30.80215         1.25885
H         13.47094         2.65950         1.16283
H         12.21927        30.80943         1.08950
H         15.83803         2.59783         0.75605
H         14.67636        30.82235         0.84799
H         18.28107         2.47419         0.33438
H         17.05898        30.84815         0.58012
H         20.38534         3.63975        -0.19411
H         21.70172         5.78158        -0.40818
H         21.83233         8.23613        -0.19384
H         21.94207        10.18756         0.15051
H         21.92150        12.42265        -0.71833
H         21.97917        14.37770        -0.97540
H         21.89775        16.78606        -1.11015
H         21.90082        18.56188        -0.50663
H         21.91746        20.96270        -0.05091
H         21.92534        22.98037        -0.32951
H         21.80324        25.38112        -0.35138
H         21.71884        27.26902        -0.60594
H         21.58442        29.70869        -0.64646
H         19.56022        30.89842         0.21657
