         349
 CSIRO Nanostructure Databank - Neutral Graphene Oxide Data Set
C          1.36459         1.99170         0.07992
C          1.44757         2.88974         1.21952
C          2.44222         1.79079        -0.71883
C          2.49479         3.74533         1.32933
C          1.48697         6.67961         2.46757
C          1.45348         8.05516         2.26671
C          2.63985         5.95695         2.13949
C          2.63049         8.75262         1.92277
C          1.38766        10.77556         1.26186
C          1.32978        12.11797         0.77716
C          2.58062        10.17264         1.57406
C          2.46969        12.81340         0.43080
C          1.18017        15.01612        -0.08590
C          1.17824        16.35491        -0.35729
C          2.37457        14.12042        -0.33648
C          2.35785        17.09829        -0.73086
C          2.39033        18.50406        -0.72989
C          3.70369         2.44406        -0.34930
C          3.53169         3.84916         0.23313
C          4.86465         1.74719        -0.37859
C          4.86945         4.54853         0.53307
C          3.82636         6.60390         1.71704
C          3.83982         8.02064         1.79693
C          5.00743         5.88781         1.20833
C          5.13283         8.74973         1.78661
C          3.82523        11.04245         1.57964
C          3.76619        12.20637         0.61522
C          5.13721        10.23977         1.53592
C          4.95879        12.79772         0.18192
C          3.66742        14.88560        -0.21564
C          3.61990        16.32819        -0.65473
C          4.93866        14.14148        -0.34476
C          4.81406        16.76271        -1.34026
C          3.53378        19.33982        -0.77653
C          4.79037        18.91784        -1.28670
C          6.03878         2.23207         0.42238
C          6.13417         3.75116         0.34915
C          7.35611         1.52282         0.20797
C          7.37985         4.32692         0.86539
C          6.24090         6.50815         1.23087
C          6.41862         7.91872         1.76080
C          7.48129         5.78804         0.96014
C          7.58531         8.67238         1.13454
C          6.34520        10.83424         0.91088
C          6.25623        12.12862         0.32021
C          7.54853        10.03207         0.85980
C          7.40558        12.77966        -0.20029
C          6.10736        14.82904        -0.68078
C          6.04336        16.18581        -1.17199
C          7.37658        14.12727        -0.69865
C          7.23146        16.99279        -1.57149
C          6.10186        19.27779        -0.97340
C          7.26498        18.47463        -1.29388
C          8.50577         2.08532         0.72578
C          8.36882         3.45114         1.23348
C          9.81305         1.43981         0.66424
C         10.22938         4.38541         0.84388
C          8.68575         6.43709         0.77210
C          8.89470         7.90208         1.12642
C          9.80858         5.65938         0.12717
C         10.02300         8.57129         0.36062
C          8.81545        10.72790         0.49734
C          8.71980        12.12835        -0.05978
C         10.03578         9.94804         0.16621
C          9.85863        12.63963        -0.87622
C          8.52811        14.80476        -1.11666
C          8.53452        16.23248        -1.51267
C          9.80016        14.09046        -1.30496
C          9.80224        16.96519        -1.35422
C          8.51175        19.07821        -1.20017
C          9.77305        18.38348        -1.27527
C         11.05926         2.06878         0.48331
C         11.11305         3.52001         0.27275
C         12.27058         1.33135         0.29940
C         12.16152         4.10195        -0.59922
C         11.07234         6.41214        -0.16677
C         11.15755         7.77481        -0.03905
C         12.20064         5.61097        -0.68373
C         12.45628         8.44157        -0.26461
C         11.19919        10.64587        -0.31939
C         11.17542        11.98880        -0.73830
C         12.48864         9.94266        -0.35503
C         12.34647        12.68128        -1.14991
C         11.06918        14.82823        -1.36235
C         11.03828        16.25871        -1.31700
C         12.30090        14.12427        -1.35252
C         12.25756        16.99666        -1.25290
C         10.98887        19.09709        -1.18827
C         12.23803        18.43108        -1.18879
C         13.47207         1.92121        -0.17617
C         13.41413         3.28610        -0.75204
C         14.72342         1.28512        -0.15624
C         14.70492         4.01194        -0.98723
C         13.48956         6.29238        -0.88291
C         13.59578         7.65613        -0.78716
C         14.76797         5.50172        -0.79368
C         14.81996         8.33521        -1.23076
C         13.67245        10.60689        -0.92847
C         13.59966        11.95980        -1.20319
C         14.98539         9.82460        -0.88581
C         14.84325        12.70504        -1.51067
C         13.50367        14.88867        -1.38878
C         13.50015        16.30248        -1.28331
C         14.79421        14.21016        -1.55073
C         14.73219        17.03842        -1.18985
C         13.46550        19.13952        -1.11623
C         14.71153        18.47075        -1.09501
C         15.97282         1.95379        -0.43510
C         15.99300         3.35000        -0.72958
C         17.21093         1.27906        -0.33686
C         17.20500         4.09033        -0.80909
C         15.90228         6.05209        -1.65178
C         15.78850         7.53760        -1.77381
C         17.23237         5.54761        -1.04798
C         17.70028         8.57420        -1.51095
C         16.17204        10.62032        -1.44832
C         16.13330        12.06382        -1.18431
C         17.58645        10.02894        -1.43840
C         17.29254        12.79309        -0.97472
C         16.02665        14.93786        -1.22082
C         15.98019        16.35233        -1.10481
C         17.21278        14.23699        -0.94972
C         17.20317        17.07249        -0.93058
C         15.93945        19.18153        -0.95279
C         17.18373        18.52568        -0.86211
C         18.43710         1.96950        -0.48243
C         18.41687         3.38693        -0.67270
C         19.68668         1.26437        -0.40931
C         19.67399         4.14599        -0.79111
C         18.37804         6.29397        -0.77334
C         18.44769         7.77069        -0.71473
C         19.64585         5.61137        -0.51966
C         19.49622         8.45941         0.10000
C         18.62059        10.75831        -0.71725
C         18.52987        12.12911        -0.56023
C         19.45188         9.99081         0.28887
C         19.60303        12.86074         0.11147
C         18.38195        14.95244        -0.59671
C         18.39799        16.36595        -0.72477
C         19.48332        14.26146         0.03677
C         19.72732        17.08071        -0.79501
C         18.39193        19.22385        -0.61069
C         19.65343        18.56848        -0.50261
C         20.92426         1.91286        -0.46453
C         20.95221         3.38301        -0.64620
C         22.17264         1.25638        -0.44549
C         22.16918         4.10196        -0.23620
C         20.80874         6.28480        -0.21684
C         20.79605         7.71266         0.22538
C         22.06130         5.54125         0.07032
C         22.04096         8.50757         0.38085
C         20.79446        10.68002         0.50547
C         20.78869        12.09464         0.59866
C         21.99563         9.87623         0.63331
C         22.03856        12.76495         0.92195
C         20.40564        15.20390         0.63017
C         20.72604        16.41983         0.12355
C         22.16716        14.11195         1.21825
C         21.94822        17.14484         0.67783
C         20.82766        19.21399        -0.16647
C         22.13196        18.45250        -0.14696
C         23.39427         1.98516        -0.51825
C         23.37413         3.43257        -0.30156
C         24.62184         1.35225        -0.72906
C         24.62646         4.16217        -0.27401
C         23.31604         6.29925         0.36062
C         23.33510         7.78856         0.00494
C         24.64615         5.52547         0.39614
C         24.60528         8.44351         0.48442
C         23.26059        10.53578         1.09345
C         23.32456        12.04640         1.29393
C         24.56532         9.82148         0.98099
C         24.55071        12.69060         0.59122
C         23.32598        14.93138         0.91032
C         23.23672        16.29377         0.68508
C         24.60236        14.19881         0.79930
C         24.52523        16.99172         0.25603
C         23.34606        19.19099         0.34626
C         24.51135        18.49922         0.47131
C         25.83619         2.09976        -0.88908
C         25.78701         3.54361        -0.67541
C         27.03678         1.47561        -1.18103
C         27.02699         4.33055        -0.89527
C         25.82691         6.38909         0.05933
C         25.80913         7.74076         0.45910
C         27.05891         5.78595        -0.44729
C         27.08741         8.36077         0.91843
C         25.83713        10.60015         1.02889
C         25.83608        11.95888         0.98162
C         27.08830         9.82627         1.27045
C         27.08495        12.71062         1.28809
C         25.77538        14.88320         0.87220
C         25.74967        16.39187         0.96821
C         27.05552        14.21984         1.22886
C         27.05893        17.03192         0.43722
C         25.77734        19.16890         0.70149
C         26.99118        18.52668         0.69153
C         28.27439         2.23953        -1.57334
C         28.31138         3.64275        -1.01916
C         29.56995         1.50803        -1.36135
C         29.50422         4.33885        -0.89141
C         28.35386         6.40037        -0.16912
C         28.39446         7.67557         0.57937
C         29.53253         5.73801        -0.48358
C         29.65485         8.44265         0.51670
C         28.40850        10.56309         1.29491
C         28.37197        12.02325         1.18002
C         29.75370         9.84739         1.12339
C         29.63124        12.76481         1.32260
C         28.31921        15.01056         1.17181
C         28.29553        16.35847         0.99835
C         29.61157        14.31182         1.41420
C         29.53228        17.17411         1.31780
C         28.23688        19.24334         0.72590
C         29.45095        18.60831         0.84270
C         30.72492         2.18280        -1.17649
C         30.76021         3.62568        -1.00422
C         31.95118         4.31403        -0.83978
C         30.80288         6.41873        -0.33365
C         30.79668         7.83476         0.04594
C         31.97273         5.70048        -0.54636
C         32.01877         8.63417        -0.06763
C         30.70707        10.71600         0.28073
C         30.86650        12.11405         0.86311
C         32.00009         9.97576         0.03581
C         32.01474        12.86033         0.77085
C         30.86151        15.02251         1.06828
C         30.82060        16.46920         0.93399
C         32.01916        14.28118         0.90698
C         31.92762        17.22315         0.62053
C         30.67937        19.31969         0.62923
C         31.86993        18.65026         0.52700
O          5.30765         9.70170         2.91016
O          9.59728        12.96803        -2.26463
O          7.86505        16.54940        -2.81000
O         26.86649         5.40816        -1.89502
O         14.86551        13.40612        -2.79776
O         16.93853        10.47526        -2.67874
O         29.71762        13.49891         2.61022
O         12.82404         9.23716         0.93627
O          5.59184         4.49473        -0.77073
O         16.86862         8.04002        -2.50418
O          4.69355        17.84426        -2.20634
O         27.71554        10.12182         2.54868
O         21.08159        14.78331         1.77553
O          2.59032         4.58384         2.43191
O          9.47320         3.96868         1.94021
O         20.47185         3.80192        -1.99198
O         27.77639         7.56084         1.92772
O         22.48660         5.92437         1.48164
O         13.97206         3.43721        -2.09776
O          9.10264        11.89505         1.34189
O         23.81326         9.86287         2.28495
O         11.75616         4.74520        -1.84934
O          3.80464        15.93508         0.77776
O         19.83819         7.83772         1.36750
O         26.92745        13.54070         2.53475
O         15.37621         9.78093         0.52697
H         14.55645         9.55778         1.04480
O          9.24025         5.20573        -1.14386
H          9.99800         4.92454        -1.72208
O         24.36061        12.47023        -0.83728
H         24.89247        13.13042        -1.32997
O         27.22301        16.82927        -0.98900
H         26.33911        16.97114        -1.41602
O         25.62821        16.73279         2.36489
H         26.25307        16.17972         2.87970
O          3.80446        11.71807         2.88060
H          4.14619        11.06757         3.53677
O          2.31921        13.74448        -1.75602
H          1.51848        13.19522        -1.89091
O          6.79620         7.70716         3.16726
H          6.56646         8.54699         3.63445
O         15.16733         5.64104         0.60673
H         15.23594         6.59567         0.82456
O         30.33623         9.70950         2.42981
H         29.61168         9.44640         3.04195
O         29.55294        17.26757         2.78554
H         29.72078        16.36752         3.14010
O         23.48726        12.31563         2.70167
H         23.80876        11.48394         3.12800
O         15.81690         5.48450        -2.97363
H         16.43450         5.98078        -3.55179
O         28.14933         2.41861        -3.03955
H         27.46789         3.10909        -3.19240
O          2.91113         4.66844        -0.79937
H          3.58642         4.77547        -1.50609
O         30.03285        10.89896        -1.00422
H         30.67929        11.27962        -1.63525
O         20.15092        16.91348        -2.20175
H         19.47225        17.34399        -2.76439
O         18.72034        10.17897         1.54347
H         19.07043         9.50405         2.17016
O          5.69380         2.00066         1.84051
H          5.65767         1.03156         1.98529
O         24.88725         5.17489         1.80026
H         24.02003         5.26204         2.26722
O         23.35374         7.79599        -1.46562
H         23.50000         8.71624        -1.77092
O         24.64605        16.71579        -1.17068
H         23.89738        17.21484        -1.60477
O         22.44720        18.11935        -1.53993
H         21.65618        17.68482        -1.95718
O         21.68155        17.55738         2.03609
H         21.53394        16.74030         2.56277
O          9.38491         7.87725         2.50932
H          8.59739         7.65783         3.07319
H          0.42991         1.43832        -0.08703
H          0.65903         2.87312         1.98272
H          2.43669         1.02390        -1.50667
H          0.59856         6.14292         2.82386
H          0.51615         8.59911         2.44019
H          0.44155        10.22037         1.32822
H          0.33835        12.55955         0.60218
H          0.23398        14.54854         0.22667
H          0.24015        16.91832        -0.22862
H          1.43544        19.00624        -0.49842
H          4.88334         0.73166        -0.80613
H          3.43910        20.35204        -0.35449
H          7.37256         0.53814        -0.28278
H          6.27862        20.20548        -0.40694
H          9.80189         0.33920         0.59696
H          8.55371        20.16420        -1.02330
H         12.27982         0.26130         0.55924
H         10.96473        20.19509        -1.12579
H         14.77702         0.24388         0.19821
H         13.44453        20.23784        -1.05382
H         17.22543         0.19655        -0.14248
H         15.90671        20.27838        -0.87209
H         19.66005         0.16967        -0.29990
H         18.35069        20.31224        -0.45228
H         22.20651         0.15646        -0.43918
H         20.82355        20.29817         0.02771
H         24.65439         0.25969        -0.85501
H         23.31863        20.28359         0.47977
H         27.04533         0.38315        -1.32105
H         25.75142        20.26263         0.83456
H         29.57205         0.41189        -1.45632
H         28.21531        20.33363         0.56324
H         31.67800         1.63743        -1.09713
H         32.90562         3.77419        -0.92261
H         32.95182         6.18586        -0.43547
H         32.96740         8.12661        -0.29154
H         32.92929        10.54227        -0.12150
H         32.96192        12.38881         0.47309
H         32.97418        14.79516         0.73085
H         32.89375        16.73657         0.42286
H         30.63700        20.40657         0.46339
H         32.79705        19.20047         0.31468
