         320
 CSIRO Nanostructure Databank - Neutral Graphene Oxide Data Set
C         30.27766        31.91148         0.57510
C         30.39177        33.13282         0.79433
C         30.68877        36.40066         0.98759
C         30.83031        37.63235         1.00804
C         30.67395        40.80118        -0.02214
C         30.64269        41.98813        -0.42334
C         32.47655        28.93463        -0.07016
C         31.37959        29.54383         0.12315
C         32.73918        31.63167         0.35479
C         31.03593        30.92725        -0.20107
C         32.66797        33.15860         0.08392
C         31.67239        33.87187         1.10431
C         33.02891        36.08006         0.45957
C         31.77226        35.40219         1.01336
C         33.21701        37.61744         0.32462
C         31.92674        38.51114         0.60552
C         32.84863        40.39988        -1.04920
C         31.83283        39.91022         0.08181
C         33.00422        41.97371        -1.15330
C         31.73569        42.76721        -0.87927
C         33.04141        44.78488        -0.86932
C         31.95987        44.13516        -0.99364
C         35.26030        27.23914         0.32379
C         35.00022        28.68350         0.38635
C         33.80870        29.38208        -0.10746
C         35.12611        31.61456        -0.11258
C         33.82995        30.88193        -0.45301
C         35.13324        33.04757        -0.49517
C         34.03197        33.81983        -0.10407
C         35.25860        35.86672        -0.72805
C         34.04700        35.23389        -0.17623
C         35.25047        37.30556        -1.11113
C         33.90452        38.04458        -1.02079
C         35.14678        39.92937        -0.05510
C         34.10431        39.55905        -0.92138
C         35.70984        42.18371        -1.17152
C         34.35716        42.81916        -1.20717
C         35.38504        44.69657         0.06852
C         34.33082        44.23121        -0.71674
C         35.60406        45.92925         0.69098
C         37.69356        27.11920         0.27213
C         36.32396        26.65383         0.58633
C         37.71024        28.65156         0.66996
C         36.36458        29.41845         0.46661
C         37.70167        31.60535        -0.15784
C         36.41568        30.91271         0.18179
C         37.70027        32.89594        -0.58375
C         36.43261        33.65639        -0.98797
C         37.75024        35.86066        -1.02017
C         36.54665        35.09770        -0.44244
C         37.73296        37.31891        -0.51988
C         36.55510        38.11627        -1.12694
C         37.68216        40.12323        -0.22471
C         36.49247        39.42155        -0.33911
C         37.70250        41.54362         0.34196
C         36.61710        42.47854        -0.18660
C         37.75365        44.34795         1.09852
C         36.41434        43.70148         0.68068
C         37.73943        45.62736         1.66714
C         36.52685        46.34839         1.44424
C         40.35824        24.37940         0.63092
C         39.30097        24.98747         0.43033
C         40.36929        27.14727        -0.03109
C         38.98539        26.38674         0.14604
C         40.27466        28.65054         0.43826
C         38.92224        29.34164        -0.03249
C         40.26283        31.49508        -0.34837
C         38.97521        30.87959         0.28782
C         40.23566        33.00259        -0.32506
C         38.99395        33.62599        -0.94252
C         40.24929        35.81736        -1.08251
C         39.02210        35.12283        -0.70448
C         40.25541        37.33222        -0.99762
C         39.01417        38.08771        -0.72344
C         40.15606        40.05669         0.26713
C         38.97489        39.44574        -0.45484
C         40.31986        41.56824         0.19407
C         39.01887        42.31732         0.30237
C         40.24378        44.22837         1.32132
C         39.01813        43.64590         0.96773
C         40.25647        45.69173         1.76503
C         38.89531        46.01294         2.53927
C         40.08914        48.11261         2.96260
C         39.01162        47.46818         2.95180
C         42.97213        24.46762         1.08093
C         41.73841        24.88201         0.28574
C         42.92661        27.22952         0.32171
C         41.59831        26.44933         0.66479
C         42.80345        28.73222         0.69648
C         41.59050        29.39333        -0.00324
C         42.81915        31.61456        -0.18738
C         41.54922        30.91702         0.30769
C         42.80341        32.92625        -0.53582
C         41.54015        33.71363        -0.46811
C         42.83474        35.79416        -1.06120
C         41.54293        35.01605        -1.24895
C         42.85298        37.24187        -0.60412
C         41.56123        38.09657        -0.90456
C         42.62069        40.28741        -0.42238
C         41.53192        39.29812         0.10292
C         42.87011        41.41781         0.61245
C         41.54834        42.21334         0.71014
C         42.79623        44.19383         1.52869
C         41.50224        43.53129         1.13901
C         42.81937        45.63307         2.02769
C         41.48989        46.15834         2.58787
C         42.63063        48.35271         2.39295
C         41.41243        47.76318         2.69350
C         43.89075        25.27930         1.30272
C         45.18357        27.49707         1.40068
C         44.13520        26.66965         1.11267
C         45.23027        28.90584         0.90222
C         44.09814        29.47807         0.41257
C         45.35716        31.65656         0.00216
C         44.11568        30.81756        -0.29700
C         45.24826        33.15937        -0.18289
C         44.07062        33.58881        -1.09434
C         45.31875        35.81267        -1.45099
C         44.00703        35.11578        -1.11491
C         45.30514        37.35712        -1.40205
C         44.00227        38.06912        -1.16759
C         45.21859        40.34676        -1.01856
C         43.92267        39.58267        -0.94499
C         45.22488        41.78836        -0.50886
C         44.00530        42.35190         0.17017
C         45.37329        44.43243         0.99384
C         44.08706        43.59209         1.01778
C         45.02973        46.00110         0.71657
C         44.03347        46.51957         1.73380
C         43.64777        47.94075         1.75946
C         47.48228        27.86501         2.23177
C         46.45974        27.20210         1.99406
C         47.81586        29.09807         1.40814
C         46.40580        29.79850         1.27613
C         47.85729        31.74827         0.28090
C         46.49113        31.10536         0.50582
C         47.80715        33.22531        -0.06657
C         46.56449        33.86051        -0.47234
C         47.78220        35.92103        -1.14030
C         46.53981        35.19034        -0.82058
C         47.77552        37.41777        -1.17206
C         46.59782        38.10564        -1.26843
C         47.80234        40.24578        -0.71404
C         46.56034        39.65069        -1.43289
C         47.84862        41.78260        -0.70798
C         46.55358        42.50967        -0.45843
C         47.94110        44.60233         0.54885
C         46.50966        43.98735        -0.01383
C         47.54285        46.06448         0.46928
C         46.43475        46.54757         0.72191
C         50.21982        29.53236         2.18523
C         48.81145        30.05412         2.06385
C         50.13077        32.10055         1.28204
C         48.98049        31.38048         1.26392
C         50.19425        33.49565         0.66764
C         49.00345        33.89128        -0.18283
C         50.40623        35.85223        -1.12583
C         49.07839        35.16813        -0.92277
C         50.34721        37.34203        -1.56687
C         49.13733        38.07978        -0.89871
C         50.39914        40.34717        -1.14879
C         49.08698        39.56331        -1.36221
C         50.42742        41.80684        -0.73596
C         49.13823        42.43341        -0.16217
C         50.46178        44.43407         0.28764
C         49.10004        44.04161        -0.28085
C         51.22086        30.21579         2.41086
C         52.61139        31.84263         1.02983
C         51.45463        31.63088         2.03197
C         52.50633        32.94615         0.40227
C         51.54076        33.82407        -0.02578
C         52.78567        36.07152        -0.52318
C         51.67792        35.10776        -0.71343
C         52.69323        37.23013        -0.99479
C         51.63178        38.13691        -1.21811
C         52.74204        40.34884        -0.77135
C         51.65231        39.50962        -1.07710
C         52.81775        41.55796        -0.39569
C         51.74381        42.42498        -0.24336
C         51.49947        43.75280         0.15969
O         43.90199        45.84509         3.00562
O         50.45941        41.45344        -2.13161
O         40.13390        36.68377        -2.36018
O         35.17520        36.28454        -2.17192
O         38.14832        26.70360        -1.01499
O         51.19559        35.07466        -2.07996
O         33.61794        42.45533        -2.39228
O         39.60494        39.78820         1.57815
O         35.63740        31.56358         1.25730
O         32.27929        39.65521         1.41712
O         47.19912        42.42872        -1.80328
O         39.72739        42.25542        -0.96002
O         43.63177        43.34757         2.38073
O         44.32465        40.25585        -2.16902
O         44.43602        37.79303        -2.51968
O         44.21959        42.59925        -1.23105
O         40.82044        33.69490         0.81782
O         32.82769        35.81399         1.93354
O         35.51009        29.21349         1.64250
O         48.44505        35.21599        -2.25467
O         44.28602        33.08276        -2.42688
H         43.59577        33.48034        -3.00357
O         42.02403        40.96292        -1.53549
H         42.72832        41.13005        -2.20600
O         40.25225        28.66223         1.86031
H         40.16513        29.60119         2.15832
O         34.91875        40.83206         0.90329
H         35.74382        41.00887         1.43243
O         44.83701        33.63961         1.13870
H         45.43539        33.24904         1.81134
O         30.86265        31.07086        -1.56939
H         30.60920        32.00327        -1.75490
O         41.98498        24.69465        -1.06885
H         42.06062        23.73929        -1.26356
O         33.05976        37.63272        -2.09451
H         33.58576        36.98666        -2.63282
O         38.70854        29.17210        -1.43217
H         39.42431        29.68204        -1.89956
O         40.31847        46.47181         0.56129
H         39.63071        46.16037        -0.06391
O         46.66366        39.91271        -2.83034
H         45.77990        39.72022        -3.22308
O         36.69221        34.89691         0.96671
H         36.98677        35.74426         1.38088
O         44.36565        46.18565        -0.50808
H         44.95094        45.85766        -1.23399
O         47.67045        39.88059         0.68062
H         48.23019        40.50980         1.21045
O         49.02009        44.39098        -1.63336
H         48.87961        45.35850        -1.70624
O         41.39429        45.65643         3.92027
H         42.29101        45.69896         4.32333
O         41.41494        26.40444         2.06906
H         41.51753        27.31459         2.44036
O         31.99491        33.54471         2.45467
H         32.55154        34.27468         2.82041
O         48.96267        39.48532        -2.77166
H         49.07605        40.38330        -3.15250
O         49.41524        37.95755         0.50558
H         48.68188        38.40458         0.99596
O         48.31717        28.69601         0.14476
H         47.76052        27.96873        -0.20497
O         45.89570        44.33185         2.31727
H         45.12024        44.20515         2.92644
O         40.61593        27.07577        -1.43120
H         39.81800        27.42756        -1.89294
O         43.21101        37.09282         0.78937
H         42.52144        36.57610         1.25569
O         32.92866        31.28024         1.66185
H         32.51524        31.93896         2.27671
O         43.26859        27.08231        -1.04875
H         42.43148        27.07153        -1.57791
O         38.79181        45.20916         3.69427
H         39.59089        45.35083         4.25363
O         42.69527        28.78208         2.13958
H         42.44570        29.70441         2.38988
O         51.66417        32.47306         3.13759
H         52.43740        32.15411         3.64758
O         41.82628        38.83527         1.42139
H         40.97725        39.00913         1.94377
O         39.03357        31.08344         1.71117
H         38.27243        30.60775         2.12238
O         32.19050        40.11278        -2.28239
H         32.35300        39.16620        -2.52184
O         35.77757        43.34452         1.93921
H         36.41976        42.78349         2.43655
O         46.28492        44.69022        -1.24630
H         46.68548        44.15656        -1.97539
O         50.24106        37.32781        -2.98259
H         49.64734        36.58417        -3.23953
O         36.82862        38.46170        -2.49274
H         36.83506        37.61252        -2.99474
O         49.19917        42.01939         1.22662
H         49.02048        42.80023         1.81834
O         45.50281        35.48920        -2.86187
H         45.00026        36.16098        -3.37760
O         44.23810        30.46471        -1.71953
H         44.32187        31.31931        -2.22564
O         37.89338        28.66443         2.09136
H         37.01199        28.48938         2.50017
O         41.77274        38.63515        -2.21969
H         41.35053        38.02813        -2.86774
O         46.02079        30.23396         2.61584
H         45.72278        29.44148         3.11302
O         48.30365        44.32744         1.88362
H         47.59830        44.66578         2.48787
O         48.30748        31.15487        -0.97851
H         48.41389        30.17913        -0.83851
O         40.31081        31.17554        -1.75667
H         39.87047        31.90459        -2.27012
O         37.45054        41.31842         1.77630
H         38.21911        40.69895         2.02557
O         43.31859        40.90232         1.86855
H         42.79366        40.08026         2.06560
O         48.38753        30.40383         3.36743
H         48.10369        29.58453         3.82646
O         33.61965        31.07236        -1.86300
H         32.76435        30.64476        -2.10666
O         37.63098        35.89626        -2.47425
H         38.51549        36.21433        -2.80097
O         36.39004        33.64651        -2.44166
H         36.02907        34.51477        -2.74039
O         34.17457        37.96178         1.32763
H         33.85231        37.60746         2.18629
O         41.51315        31.14005         1.73307
H         41.31110        32.09973         1.86745
O         35.95199        41.30812        -2.16429
H         35.15806        41.28129        -2.74951
O         37.56008        37.33029         0.93377
H         38.13247        38.04337         1.31044
O         32.06649        33.35734        -1.22610
H         32.69364        32.97754        -1.88643
O         41.75942        29.24279        -1.41314
H         42.64974        29.59257        -1.67965
O         39.10341        33.44783        -2.40147
H         38.19496        33.64132        -2.76441
O         41.59607        34.55946        -2.63678
H         41.16949        35.26022        -3.18226
O         50.17265        34.43837         1.78026
H         50.72290        34.05477         2.50566
