         210
 CSIRO Nanostructure Databank - Neutral Graphene Oxide Data Set
C         30.48018        31.54812        -0.10358
C         30.64783        32.73457         0.22323
C         30.68119        35.78387         0.98810
C         30.75904        36.96870         1.38126
C         31.00499        39.84686         2.61749
C         31.08050        40.99083         3.13009
C         32.76720        29.00431        -1.53244
C         31.73529        29.48426        -1.06514
C         32.93275        31.55340        -0.54790
C         31.69311        30.64930        -0.12256
C         32.94413        32.95714        -0.24245
C         31.74530        33.64515         0.16918
C         32.97622        35.78364         0.36177
C         31.76532        34.99945         0.49866
C         33.00236        37.19334         0.69269
C         31.86239        37.84759         1.29439
C         33.11002        39.97344         1.60816
C         31.95670        39.16581         1.82473
C         33.25091        41.29465         2.13168
C         32.17790        41.86025         2.95117
C         33.50080        43.78525         3.15716
C         32.44801        43.16671         3.43093
C         35.42668        27.33095        -1.32331
C         35.25540        28.82275        -1.05009
C         34.12663        29.56177        -1.77737
C         35.30990        31.70072        -1.12573
C         34.07607        30.98270        -1.11417
C         35.35405        33.05612        -0.73936
C         34.14764        33.72201        -0.36154
C         35.37764        35.89261        -0.21045
C         34.15561        35.13307        -0.07662
C         35.36496        37.32694        -0.01148
C         34.16745        37.95774         0.44161
C         35.32725        40.25909         0.35322
C         34.12241        39.42556         0.67419
C         35.53332        41.55970         1.04607
C         34.46260        42.06189         1.86501
C         35.78504        44.13962         2.13817
C         34.62658        43.38076         2.40003
C         36.02748        45.47884         2.54387
C         37.87178        27.31406        -0.92449
C         36.54922        26.84598        -1.03954
C         37.90422        28.73980        -1.38545
C         36.58252        29.48103        -1.49066
C         37.87763        31.72019        -1.30712
C         36.56571        30.99326        -1.50886
C         37.81075        33.14890        -0.94754
C         36.60959        33.79919        -0.74635
C         37.81194        35.98205        -0.55931
C         36.58322        35.23877        -0.52195
C         37.79288        37.42097        -0.45510
C         36.55295        38.07697        -0.23067
C         37.73155        40.36603        -0.58695
C         36.50793        39.56381        -0.26553
C         37.74090        41.87482        -0.24148
C         36.71365        42.28697         0.82541
C         38.06465        44.38446         1.12448
C         36.87065        43.60427         1.36823
C         38.19467        45.72727         1.58833
C         37.03741        46.16641         2.29073
C         40.01793        24.70984         0.61935
C         39.04128        25.34942         0.15498
C         40.23605        27.34837        -0.11120
C         38.97011        26.68241        -0.31966
C         40.35193        28.77182        -0.54439
C         39.18174        29.51291        -1.17854
C         40.29237        31.70710        -0.65300
C         39.13768        30.98712        -1.03089
C         40.30865        33.14333        -0.67838
C         39.09349        33.89294        -1.17169
C         40.25727        36.01822        -0.57392
C         39.04263        35.31800        -0.70949
C         40.24401        37.45207        -0.53929
C         39.01575        38.14689        -0.56655
C         40.30054        40.32145        -0.54767
C         39.03102        39.61836        -0.95022
C         40.30704        41.74840        -0.34388
C         39.12338        42.44104         0.03453
C         40.45289        44.49472         0.40451
C         39.21692        43.77533         0.49936
C         40.55022        45.86848         0.80054
C         39.38337        46.47278         1.38961
C         40.66860        48.51447         1.59713
C         39.63710        47.81318         1.74344
C         42.55690        24.76866         1.24270
C         41.29217        25.28102         0.82194
C         42.65812        27.41449         0.52380
C         41.35599        26.67721         0.43686
C         42.60469        28.90056         0.68573
C         41.38211        29.60588         0.15016
C         42.65980        31.73620         0.12143
C         41.47700        31.03938        -0.16518
C         42.70449        33.16137        -0.09096
C         41.48486        33.85386        -0.42330
C         42.70797        36.00754        -0.37598
C         41.49232        35.30031        -0.48101
C         42.72277        37.44270        -0.45731
C         41.49868        38.15264        -0.52884
C         42.76747        40.26490        -0.57307
C         41.50737        39.58945        -0.54482
C         42.73548        41.71451        -0.98352
C         41.53253        42.45295        -0.43969
C         42.80799        44.58218        -0.35006
C         41.60457        43.84129        -0.14745
C         42.90836        45.93811         0.03174
C         41.77255        46.60946         0.62559
C         43.11958        48.60020         0.75627
C         41.86253        48.00924         1.02366
C         43.60656        25.39237         1.48820
C         45.00047        27.59348         1.59869
C         43.94210        26.74238         1.04616
C         45.02740        29.00899         1.35434
C         43.85529        29.67127         0.84726
C         45.07118        31.80826         0.77855
C         43.85416        31.05563         0.60426
C         45.12140        33.18461         0.41433
C         43.91384        33.87273         0.01941
C         45.16066        36.00172        -0.25142
C         43.93959        35.29854        -0.19917
C         45.20226        37.41397        -0.41672
C         43.97656        38.13794        -0.46628
C         45.25008        40.27051        -0.75745
C         43.98179        39.56982        -0.57575
C         45.27560        41.66723        -0.94821
C         44.02120        42.43953        -0.58900
C         45.27994        44.57740        -0.97054
C         43.94148        43.89613        -1.08053
C         45.32359        45.93536        -0.67764
C         44.17300        46.62517        -0.17664
C         44.07401        47.95654         0.24091
C         47.13028        27.86231         2.61341
C         46.14119        27.15453         2.28486
C         47.33361        29.22204         2.31664
C         46.18865        29.79860         1.67096
C         47.45563        31.93760         1.46117
C         46.24291        31.18563         1.30595
C         47.52553        33.27564         0.96218
C         46.35568        33.87590         0.43881
C         47.72328        35.95920        -0.20691
C         46.41173        35.22537        -0.16383
C         47.70294        37.44122        -0.36156
C         46.46690        38.12171        -0.49829
C         47.71447        40.23872        -0.88171
C         46.47653        39.53830        -0.72426
C         47.70667        41.62233        -1.24053
C         46.48571        42.33768        -1.25811
C         47.72493        44.55125        -1.89026
C         46.42847        43.80947        -1.52485
C         47.65786        45.92391        -1.37001
C         46.61499        46.48646        -1.00061
C         49.68883        29.57152         3.18299
C         48.50309        29.99387         2.55315
C         49.83046        32.09582         2.24253
C         48.60928        31.34597         2.08811
C         49.90141        33.42609         1.68287
C         48.77358        34.01616         1.02798
C         50.09148        36.04366         0.48826
C         48.88784        35.31948         0.45818
C         50.20552        37.32827        -0.34266
C         48.92530        38.14331        -0.40980
C         50.20592        40.27178        -0.69486
C         48.95707        39.53381        -0.68732
C         50.25759        41.64612        -1.06695
C         49.00313        42.27703        -1.57686
C         50.27918        44.38866        -1.61255
C         48.99493        43.78684        -1.95684
C         50.76657        30.18915         3.37127
C         52.12075        32.35564         2.95944
C         50.98319        31.50650         2.91092
C         52.12977        33.49405         2.44020
C         51.11618        34.19697         1.74732
C         52.43047        36.24222         1.06700
C         51.21860        35.46217         1.13964
C         52.37227        37.43545         0.66726
C         51.39328        38.22152         0.06391
C         52.49347        40.47201        -0.13674
C         51.39711        39.58220        -0.23189
C         52.58450        41.67485        -0.47776
C         51.47740        42.40984        -0.96528
C         51.33327        43.75944        -1.39792
O         41.51106        29.30636         1.58286
O         36.73837        40.09882        -1.63411
O         37.21239        28.92946        -2.66328
O         49.07366        42.77511        -2.96457
O         40.30820        29.00284        -1.98152
O         43.70321        26.95166        -0.37657
O         46.77157        44.22704        -2.90820
O         34.18505        40.24745        -0.56871
O         47.23499        35.25533        -1.39731
O         37.27967        31.52202        -2.66218
O         37.31827        42.58038        -1.43851
H         36.67616        41.99166        -1.90269
O         39.10815        39.61119        -2.41295
H         38.18323        39.50067        -2.73889
O         31.96289        30.19379         1.18116
H         31.17604        29.72350         1.52598
O         44.05042        42.53948         0.86169
H         44.09266        41.63129         1.22960
O         34.44547        29.67932        -3.14104
H         33.69584        30.08530        -3.62070
O         35.10954        29.02869         0.34758
H         34.19379        28.79459         0.61287
O         43.61486        43.97410        -2.48594
H         44.33037        43.54859        -3.00490
O         39.22848        33.97360        -2.63908
H         38.96667        33.10494        -3.01711
O         50.47420        36.90259        -1.70571
H         51.25782        36.31318        -1.69427
O         42.64611        41.67221        -2.43290
H         41.79319        41.24819        -2.66886
