         252
 CSIRO Nanostructure Databank - Neutral Graphene Oxide Data Set
C         30.32955        31.88755        -0.41462
C         30.41330        33.11675        -0.13111
C         30.38795        36.25461         0.26062
C         30.45810        37.48796         0.37913
C         30.50176        40.51302         1.26380
C         30.42064        41.70885         1.66260
C         32.71158        29.22425        -1.56972
C         31.66057        29.80717        -1.23719
C         32.71308        31.83757        -0.52416
C         31.47567        31.14007        -0.74031
C         32.75483        33.23996        -0.26622
C         31.52191        33.96265        -0.13588
C         32.81926        36.21398        -0.21984
C         31.46749        35.41487        -0.25198
C         32.79709        37.64594         0.20525
C         31.60792        38.34489         0.49400
C         32.81247        40.54437         0.91192
C         31.57987        39.71398         0.86228
C         32.79221        41.85451         1.60236
C         31.56650        42.54894         1.78356
C         32.83326        44.58083         2.06971
C         31.76715        43.93149         2.10284
C         35.49894        27.45821        -1.27485
C         35.28821        28.96311        -1.37179
C         33.99540        29.55174        -0.81238
C         35.23334        31.72039        -0.13540
C         34.02047        31.15428        -0.92098
C         35.29187        33.24945        -0.11319
C         34.02263        33.98456        -0.13332
C         35.25842        36.07227         0.40868
C         34.03040        35.37894        -0.03271
C         35.35435        37.56001         0.24329
C         34.08140        38.36622         0.20520
C         35.39171        40.31549         1.21989
C         34.16052        39.81190         0.62391
C         35.38960        41.68101         1.81089
C         34.08727        42.45694         1.99323
C         35.44681        44.72944         2.13514
C         34.15592        43.99779         2.31157
C         35.52846        46.00465         1.41846
C         37.93821        27.57446        -1.37107
C         36.62548        27.02370        -1.59753
C         37.85802        28.85124        -0.86075
C         36.52450        29.51418        -0.51741
C         37.77220        31.69710         0.02741
C         36.57037        31.07470        -0.67683
C         37.85742        33.21055        -0.09409
C         36.49764        33.86487         0.14039
C         37.85754        35.98889         0.52572
C         36.54977        35.28016         0.53358
C         37.84685        37.47295         0.24992
C         36.59893        38.21591         0.68554
C         37.91761        40.19242         1.34500
C         36.59500        39.53806         1.12916
C         37.99584        41.69490         1.56172
C         36.71867        42.44218         1.87592
C         37.86561        44.61282         1.02622
C         36.74327        43.95326         1.83499
C         37.58161        45.86306         0.18472
C         36.45288        46.57088         0.82388
C         40.45696        24.90650        -1.98432
C         39.39704        25.54654        -2.06881
C         40.45263        27.45452        -1.08994
C         39.23270        27.03334        -1.93868
C         40.37227        28.79646        -0.43778
C         39.07365        29.49861        -0.30306
C         40.35081        31.66319         0.29400
C         39.05693        30.94049         0.11581
C         40.32122        33.08539         0.57055
C         38.97664        33.78706         0.80553
C         40.32225        35.97032         0.64731
C         39.04573        35.29425         0.61278
C         40.34293        37.41159         0.65128
C         39.13009        38.14262         0.63157
C         40.36075        40.24224         0.83464
C         39.13892        39.52208         0.85316
C         40.33761        41.68549         0.76351
C         39.17086        42.39076         1.02190
C         40.07720        44.20032        -0.43411
C         39.09579        43.83284         0.68324
C         39.95646        45.63595        -0.98125
C         38.64361        46.40223        -0.70996
C         39.91763        48.36296        -1.40044
C         38.85647        47.81050        -1.05530
C         42.91832        24.70958        -1.15383
C         41.68643        25.28243        -1.34740
C         42.67716        27.27549        -0.02104
C         41.55941        26.68893        -0.83825
C         42.73591        28.76174         0.22884
C         41.65525        29.59519        -0.43829
C         42.82737        31.62031         0.40658
C         41.56481        30.98679         0.15172
C         42.81087        33.04311         0.93490
C         41.51345        33.78615         0.67275
C         42.79181        35.91038         0.81329
C         41.54594        35.23578         0.72363
C         42.79521        37.36486         1.03515
C         41.56177        38.12233         0.81312
C         42.84091        40.26901         0.65836
C         41.58715        39.53362         0.76401
C         42.76393        41.70645         0.40752
C         41.56469        42.37090         0.39742
C         42.63262        44.33132        -0.80384
C         41.50835        43.86623         0.11232
C         42.51470        45.61330        -1.46516
C         41.20300        46.33178        -1.47434
C         42.39861        48.25210        -2.26043
C         41.19555        47.84562        -1.71969
C         43.86096        25.34292        -0.51826
C         45.07492        27.19860         0.89320
C         43.99407        26.54367         0.07588
C         45.20091        28.71123         0.52703
C         44.04734        29.44197         0.39280
C         45.30980        31.59082         0.53605
C         44.03491        30.90157         0.40340
C         45.28377        33.06587         0.30278
C         44.04882        33.82560         0.57183
C         45.28127        35.99692         0.48756
C         44.04817        35.21537         0.65967
C         45.30275        37.36310         0.58268
C         44.11154        38.14904         0.96498
C         45.35067        40.39176         0.68986
C         44.05176        39.59867         0.67792
C         45.22200        41.67245        -0.16095
C         44.02655        42.53865         0.27573
C         45.07248        44.33915        -1.24014
C         43.84603        43.68960        -0.69877
C         44.83017        45.31868        -2.41100
C         43.64568        46.19250        -2.09612
C         43.41072        47.51549        -2.50736
C         47.52371        27.24516         0.74728
C         46.45440        26.63633         0.68073
C         47.82396        28.65408         0.48075
C         46.50174        29.41845         0.42393
C         47.82610        31.58308         0.58085
C         46.49947        30.89346         0.56086
C         47.85810        33.07779         0.42441
C         46.57338        33.81185         0.09728
C         47.80026        36.05472         0.52899
C         46.57088        35.34641        -0.03134
C         47.82667        37.41140         0.43531
C         46.53540        38.10694         0.20001
C         47.85134        40.29802         0.06141
C         46.54235        39.58945         0.18612
C         47.74183        41.61191        -0.67297
C         46.56718        42.47610        -0.13002
C         47.66476        44.27718        -1.66738
C         46.44298        43.77988        -0.93164
C         47.24838        45.40979        -2.42400
C         46.17244        45.99100        -2.64540
C         50.38243        28.84084         1.00183
C         49.00996        29.34562         1.05770
C         50.29909        31.58665         1.28079
C         49.01535        30.86971         1.19107
C         50.24157        33.05958         1.45755
C         48.95560        33.81645         1.13948
C         50.28618        36.07152         1.19533
C         48.96147        35.31939         1.08537
C         50.31438        37.48713         0.73198
C         49.01649        38.26076         0.90231
C         50.30884        40.27094        -0.08392
C         49.04245        39.64595         0.25500
C         50.34016        41.72304        -0.43771
C         49.01196        42.44569        -0.63618
C         50.21019        44.09600        -1.83974
C         48.90426        43.70818        -1.46110
C         51.45314        29.44083         1.13229
C         52.71179        31.72637         1.32599
C         51.59661        30.81566         1.74281
C         52.61125        32.95981         1.37312
C         51.50838        33.87034         1.38079
C         52.61944        36.06507         0.79704
C         51.53202        35.22403         1.18899
C         52.62531        37.23367         0.37663
C         51.47564        38.11233         0.31945
C         52.61263        40.25193        -0.51686
C         51.48791        39.49854        -0.08843
C         52.66309        41.43019        -0.96779
C         51.60029        42.33514        -1.04449
C         51.34233        43.57315        -1.65652
O         48.71801        29.95547         2.34550
O         39.66235        28.71332         0.82665
O         38.25863        40.75374         2.65194
O         38.14360        31.11881         1.28986
O         46.31306        38.85804        -1.08792
O         45.87350        33.27295        -1.06285
O         33.52573        40.67757        -0.37332
O         42.28112        27.85784         1.26876
O         48.27503        32.21873        -0.67474
O         36.46908        44.57814         3.12687
O         37.49716        45.67077        -1.23616
O         43.52964        37.76887         2.25100
O         49.70888        42.56613         0.61079
O         49.23255        33.38119         2.50261
O         49.42589        35.88055         2.36270
O         45.86940        44.87248        -0.12993
O         32.06910        35.93102        -1.44989
O         47.33797        29.06132        -0.79895
O         35.73500        35.62478         1.71765
O         34.07160        43.02934         3.35005
O         34.85095        38.08025        -1.02500
O         39.09154        44.77412         1.81937
O         40.23722        45.64691        -2.41677
O         36.14306        41.84137         3.05388
O         47.53265        41.31715        -2.07384
H         47.16590        40.40881        -2.16404
O         46.92212        42.81721         1.20252
H         46.32591        43.54374         1.49785
O         35.07348        31.41528         1.25243
H         34.75756        30.48263         1.35324
O         38.60310        33.54424         2.17492
H         39.22095        34.02495         2.76295
O         37.79443        37.55945        -1.22934
H         38.50060        36.98113        -1.58984
O         44.28242        43.10581         1.59053
H         43.53766        43.72970         1.78442
O         44.72916        27.15482         2.26937
H         44.25526        26.32113         2.46624
O         42.86181        32.89451         2.40372
H         42.10197        32.33515         2.67456
O         36.28879        29.16648         0.85427
H         36.99653        29.60827         1.39116
O         42.02572        29.74311        -1.83700
H         42.79695        30.34682        -1.89369
O         46.62708        35.64324        -1.44963
H         46.14873        34.91660        -1.91491
O         51.58604        30.69059         3.13707
H         50.74913        30.24938         3.40364
O         38.25866        33.53400        -1.44662
H         37.71877        32.96757        -2.05475
O         34.18366        31.49934        -2.31435
H         33.50739        31.00421        -2.82856
O         45.62370        40.69898         2.06289
H         45.11302        41.50288         2.31658
O         35.38457        29.31336        -2.73332
H         36.16878        28.87446        -3.12533
O         44.51003        44.53373        -3.55358
H         44.23519        45.12509        -4.28467
O         39.34996        27.64853        -3.22743
H         40.14240        27.28733        -3.67768
O         33.80584        29.16159         0.52631
H         34.15066        28.24981         0.64630
O         39.80188        43.29853        -1.51414
H         39.97703        43.78654        -2.35494
O         36.77805        31.40134        -2.06454
H         35.90399        31.33825        -2.53757
O         44.91512        41.29364        -1.51291
H         45.19795        40.36519        -1.67404
O         41.76822        44.58002         1.34900
H         41.01681        44.45018         1.97154
O         48.82817        38.50625         2.31500
H         48.92766        37.64093         2.78266
