         630
 CSIRO Nanostructure Databank - Neutral Graphene Oxide Data Set
C         23.03378        27.05033        -1.99518
C         23.10604        28.07909        -2.90603
C         23.08369        31.98035        -3.64410
C         23.07519        33.31868        -3.26127
C         23.07559        36.10982        -2.43658
C         23.04565        37.54361        -2.11680
C         23.02989        40.03378        -0.22318
C         23.06157        41.25803         0.42388
C         23.12852        43.95688         1.60988
C         23.14863        45.22564         2.12294
C         25.33695        25.20868         0.27959
C         24.17382        25.61630        -0.33398
C         25.34505        27.54338        -1.31496
C         24.16886        26.74441        -1.19935
C         25.35796        28.72104        -2.12755
C         24.24773        28.92313        -2.94851
C         25.48204        31.79105        -3.08330
C         24.25338        31.23206        -3.49504
C         25.49155        33.21885        -2.87519
C         24.26084        33.95079        -2.85336
C         25.44894        35.92891        -1.87750
C         24.23765        35.35440        -2.41119
C         25.41211        37.25776        -1.24569
C         24.23859        38.16223        -1.46681
C         25.45075        40.05653        -0.40426
C         24.22594        39.42853        -0.66525
C         25.50240        41.29695         0.28989
C         24.28506        41.92278         0.68694
C         25.57830        43.75653         1.70850
C         24.33708        43.21061         1.34759
C         25.58889        45.00089         2.50880
C         24.37543        45.83000         2.54579
C         25.70253        47.76408         3.26062
C         24.45785        47.12648         3.03236
C         27.86109        24.22362         1.38493
C         27.83369        25.27754         0.44997
C         26.56651        25.87763         0.02706
C         27.80932        27.67870        -1.14726
C         26.56276        27.06329        -0.73153
C         27.84038        28.89990        -1.79901
C         26.52125        29.68498        -1.88881
C         27.89836        31.36287        -3.04752
C         26.62759        30.90923        -2.78940
C         27.95477        33.44773        -2.97262
C         26.70474        33.95426        -2.60121
C         27.93641        35.91563        -1.71942
C         26.67728        35.25710        -1.98892
C         27.97150        37.27036        -1.30165
C         26.71611        37.95244        -0.95311
C         27.98412        40.05004        -0.49834
C         26.69815        39.47082        -1.01673
C         27.99325        41.30800         0.14065
C         26.76655        41.93451         0.55892
C         28.08192        43.77461         1.55416
C         26.81246        43.14785         1.29161
C         28.17073        44.98053         2.40014
C         26.91870        45.67664         2.84050
C         28.18893        47.87417         3.03519
C         26.92398        47.13400         3.06065
C         28.22173        49.26556         3.29073
C         30.24009        23.89779         1.00927
C         29.04326        23.53130         1.63035
C         30.26619        25.01867         0.13134
C         29.03956        25.68174        -0.16334
C         30.31908        27.36976        -1.63813
C         29.01467        26.82270        -1.10284
C         30.35629        28.82131        -1.90920
C         29.12352        29.50873        -2.10382
C         30.35175        31.64446        -2.46139
C         29.15182        30.86276        -2.53206
C         30.38302        33.10025        -2.45134
C         29.18993        33.90752        -2.45681
C         30.41345        35.91815        -1.78021
C         29.17664        35.24015        -1.94891
C         30.41921        37.31554        -1.46725
C         29.18111        37.98838        -1.22369
C         30.42267        40.06346        -0.65555
C         29.18916        39.37345        -0.78714
C         30.43565        41.38730        -0.15394
C         29.23938        41.96867         0.35525
C         30.51637        43.98092         1.03572
C         29.27190        43.23737         1.01771
C         30.56684        45.27462         1.57241
C         29.45551        45.78579         2.39046
C         30.64192        47.95233         2.73982
C         29.41723        47.23338         2.73695
C         30.63789        49.37260         2.92996
C         29.40193        49.98988         3.20836
C         32.77274        21.68036         2.73088
C         31.59450        22.27464         2.43003
C         32.73861        23.63064         0.68967
C         31.44028        22.99082         1.11190
C         32.72686        24.82542        -0.09992
C         31.51736        25.48152        -0.40870
C         32.82770        27.46014        -1.20407
C         31.61569        26.59283        -1.43578
C         32.83256        28.83335        -1.61475
C         31.57957        29.52047        -1.96125
C         32.81189        31.65598        -2.18596
C         31.57595        30.94083        -2.18370
C         32.85278        33.06306        -2.21051
C         31.61189        33.78520        -2.21112
C         32.86443        35.91173        -1.89527
C         31.62813        35.20307        -1.97781
C         32.86457        37.33209        -1.70167
C         31.64260        38.02278        -1.43164
C         32.82282        40.16643        -1.18283
C         31.65972        39.43118        -1.08743
C         32.80450        41.66464        -1.01888
C         31.64875        42.16301        -0.17685
C         32.90023        44.28917         0.14958
C         31.68039        43.42263         0.38201
C         32.98967        45.45917         1.10181
C         31.79313        46.02469         1.60418
C         33.12985        47.69088         2.72489
C         31.85260        47.21703         2.38040
C         33.11677        49.74745         2.94036
C         31.81886        50.22596         2.69160
C         32.91804        52.22403         1.83945
C         31.75125        51.51586         2.11567
C         35.12779        19.94797         2.89069
C         35.12582        21.07784         2.07305
C         33.93558        21.86867         1.89079
C         35.15753        23.20379         0.12875
C         33.92599        22.94010         0.96569
C         35.21470        24.62158        -0.42047
C         33.97813        25.40920        -0.50783
C         35.30622        27.46641        -0.91569
C         34.03526        26.77402        -0.90067
C         35.28061        28.96949        -1.00356
C         34.04541        29.51504        -1.67420
C         35.38491        31.63791        -2.20172
C         34.07112        30.89019        -2.18812
C         35.34843        33.10732        -2.10963
C         34.10945        33.78227        -2.13642
C         35.32410        35.93539        -1.97605
C         34.10016        35.21299        -2.01800
C         35.30493        37.36508        -1.88658
C         34.08189        38.05444        -1.75968
C         35.34025        40.21222        -1.45573
C         34.03544        39.56200        -1.83812
C         35.35091        41.55477        -0.92286
C         34.14053        42.22432        -0.57689
C         35.42158        44.05398         0.39550
C         34.18034        43.48145         0.03313
C         35.45920        45.29423         1.17386
C         34.22574        46.05704         1.38134
C         35.54903        48.08277         2.11795
C         34.32576        47.27207         2.11453
C         35.52736        49.52029         2.22526
C         34.30283        50.29260         2.39503
C         35.43298        52.37162         1.68949
C         34.20513        51.63979         1.95015
C         35.42124        53.74702         1.40052
C         37.54043        19.64478         2.70456
C         36.33570        19.27753         3.23256
C         37.61169        20.69923         1.63339
C         36.37557        21.55360         1.51659
C         37.69786        23.42717         0.61751
C         36.43698        22.73786         0.80108
C         37.75427        24.73419         0.10103
C         36.54070        25.35576        -0.48146
C         37.76860        27.52712        -0.66398
C         36.50535        26.82345        -0.64376
C         37.78592        28.86306        -1.16464
C         36.60003        29.56590        -1.45698
C         37.83047        31.67914        -1.84243
C         36.63517        30.93682        -1.82475
C         37.82359        33.10486        -1.91672
C         36.57934        33.81326        -2.00465
C         37.79922        35.96438        -2.06412
C         36.57548        35.24454        -2.01538
C         37.77991        37.40107        -2.04628
C         36.54619        38.08829        -1.90269
C         37.79253        40.23990        -1.77915
C         36.52062        39.51157        -1.70366
C         37.81666        41.65924        -1.22321
C         36.58421        42.20493        -0.65773
C         37.91023        44.11341         0.25106
C         36.63933        43.43062         0.04526
C         37.97197        45.39360         0.81749
C         36.77640        45.99968         1.42783
C         37.97208        48.16812         1.60132
C         36.75799        47.44920         1.71977
C         37.96291        49.58252         1.74862
C         36.72107        50.25729         1.93845
C         37.89785        52.42252         1.59520
C         36.68371        51.69065         1.77815
C         37.85094        53.81937         1.36344
C         36.61032        54.45397         1.24058
C         39.91941        16.75617         3.06570
C         38.77078        17.46598         3.07663
C         40.05955        19.55089         2.57750
C         38.80358        18.97385         3.17992
C         40.08172        20.86733         2.06267
C         38.87639        21.52249         1.67959
C         40.14729        23.53225         1.05069
C         38.90387        22.81584         1.13362
C         40.17601        24.87107         0.56806
C         38.96559        25.49403         0.12129
C         40.24182        27.56952        -0.36009
C         38.98467        26.85782        -0.32548
C         40.30755        28.89498        -0.86665
C         39.09200        29.47633        -1.45183
C         40.34776        31.72641        -1.53167
C         39.11480        30.97498        -1.79179
C         40.30716        33.14509        -1.67813
C         39.05897        33.82450        -1.87761
C         40.27919        35.94829        -2.08334
C         39.05153        35.24941        -2.01889
C         40.26161        37.38813        -2.51823
C         39.01903        38.12541        -2.09797
C         40.28770        40.24397        -1.87504
C         39.06013        39.50335        -1.91107
C         40.30609        41.58477        -1.30609
C         39.10417        42.22655        -0.83069
C         40.37333        44.14984         0.03086
C         39.13201        43.47654        -0.18091
C         40.41200        45.46080         0.51161
C         39.19574        46.12869         0.87990
C         40.45719        48.18811         1.39347
C         39.20954        47.48507         1.29109
C         40.45680        49.62364         1.62962
C         39.19444        50.32340         1.65819
C         40.39900        52.47721         1.59116
C         39.16722        51.72981         1.61968
C         40.38016        53.88219         1.49783
C         39.11551        54.60390         1.09006
C         40.23914        56.70679         1.79844
C         39.09224        56.02326         1.60824
C         42.41069        16.69360         3.07616
C         41.21405        17.41044         2.98040
C         42.52086        19.44666         2.45213
C         41.26115        18.81177         2.68702
C         42.55119        20.82874         2.10088
C         41.33947        21.52600         1.85864
C         42.60728        23.57331         1.32660
C         41.36170        22.88012         1.41505
C         42.63009        24.93715         0.91491
C         41.41934        25.58174         0.52500
C         42.68446        27.65253         0.03263
C         41.44638        26.93526         0.06927
C         42.71484        29.01165        -0.39734
C         41.51485        29.64007        -0.85365
C         42.76285        31.79812        -1.07722
C         41.53453        31.05118        -1.18866
C         42.76462        33.20660        -1.37029
C         41.52941        33.87583        -1.63829
C         42.75431        36.00432        -1.95799
C         41.51363        35.28232        -1.90231
C         42.73728        37.43968        -2.16408
C         41.54505        38.12581        -2.23900
C         42.74323        40.28399        -2.10309
C         41.52063        39.57304        -2.12189
C         42.69785        41.72228        -1.81405
C         41.51677        42.22859        -1.10801
C         42.85906        44.25282        -0.39902
C         41.65046        43.38140        -0.16421
C         42.86552        45.53290         0.23142
C         41.67335        46.15580         0.66222
C         42.94002        48.15662         1.50160
C         41.66470        47.49837         1.15342
C         42.93307        49.61994         1.84922
C         41.65516        50.35322         1.73041
C         42.86091        52.53964         1.76514
C         41.65519        51.78960         1.72025
C         42.84276        53.95226         1.69932
C         41.57997        54.62422         1.60995
C         42.72333        56.77410         1.78313
C         41.53502        56.05649         1.69498
C         43.64471        17.33096         2.91367
C         45.00091        19.38604         2.43614
C         43.72851        18.70066         2.60013
C         45.01909        20.78654         2.15116
C         43.80355        21.50985         1.96350
C         45.07025        23.60567         1.62670
C         43.82500        22.89317         1.63516
C         45.08321        25.01785         1.30280
C         43.87366        25.65200         0.88849
C         45.11612        27.74624         0.46851
C         43.89221        27.01193         0.45548
C         45.11817        29.12084         0.11011
C         43.94285        29.75226        -0.33229
C         45.19265        31.89417        -0.64895
C         43.95943        31.15519        -0.68631
C         45.20774        33.27700        -0.99703
C         43.98110        33.94862        -1.34452
C         45.18550        36.13191        -1.52935
C         43.96644        35.35015        -1.65694
C         45.23867        37.48555        -1.80453
C         44.04453        38.15244        -2.42740
C         45.20969        40.35224        -2.08498
C         44.00742        39.63901        -2.16836
C         45.22503        41.84845        -2.34428
C         43.94192        42.52905        -1.85619
C         45.23263        44.50132        -1.03181
C         44.00343        43.74979        -1.01472
C         45.27578        45.75753        -0.46811
C         44.15790        46.22568         0.35570
C         45.39679        48.43428         0.75348
C         44.23286        47.54968         1.04241
C         45.44734        49.76170         1.23342
C         44.23826        50.37198         1.83974
C         45.40864        52.63761         1.59999
C         44.17649        51.87300         1.88274
C         45.36205        54.04870         1.63952
C         44.06110        54.72583         1.71104
C         43.96734        56.11732         1.74997
C         47.44154        19.38876         2.44952
C         46.22769        18.71607         2.57799
C         47.49357        20.76744         2.19646
C         46.26309        21.48324         2.06143
C         47.52923        23.62227         2.05023
C         46.26041        22.89582         1.87795
C         47.54101        25.11386         1.79054
C         46.29731        25.76067         1.31421
C         47.58128        27.83785         0.82594
C         46.33231        27.10673         0.89075
C         47.62019        29.16677         0.44386
C         46.33292        29.94583         0.44946
C         47.63448        31.95440        -0.29543
C         46.40604        31.27205        -0.24869
C         47.65173        33.35066        -0.59525
C         46.42975        33.99550        -0.88442
C         47.68283        36.21247        -1.00550
C         46.37336        35.46319        -0.97275
C         47.70319        37.59962        -1.50810
C         46.46336        38.25744        -1.72541
C         47.70068        40.39064        -1.93698
C         46.46306        39.66414        -1.95264
C         47.73209        41.82498        -1.95785
C         46.48031        42.54677        -1.88886
C         47.70652        44.60700        -1.36441
C         46.46324        43.87576        -1.50599
C         47.72481        45.91097        -0.93353
C         46.41634        46.66469        -0.79472
C         47.65484        48.69323        -0.14209
C         46.48135        47.92982         0.02190
C         47.80049        49.94847         0.51482
C         46.64110        50.52262         1.11742
C         47.85253        52.67940         1.52570
C         46.63992        51.94412         1.47125
C         47.80126        54.08225         1.57117
C         46.58318        54.75570         1.58759
C         49.99026        20.76302         2.02186
C         48.76987        21.46691         2.05968
C         50.02727        23.58105         1.86406
C         48.80085        22.87938         1.97388
C         50.03280        25.02238         1.58768
C         48.83728        25.73243         1.47821
C         50.09734        27.78798         0.74992
C         48.84832        27.22679         1.36681
C         50.10400        29.13892         0.34709
C         48.86946        29.87147         0.26658
C         50.13906        31.92902        -0.19809
C         48.88764        31.24816        -0.05623
C         50.17410        33.36211        -0.42905
C         48.91946        34.08072        -0.59480
C         50.16021        36.22411        -0.93507
C         48.92531        35.43688        -0.89837
C         50.17881        37.46996        -1.79917
C         48.91572        38.27758        -1.68575
C         50.18637        40.39748        -1.91472
C         48.93855        39.68573        -1.87089
C         50.18938        41.81362        -1.93606
C         48.95509        42.51497        -1.91625
C         50.22532        44.72435        -1.62405
C         48.93788        44.02231        -2.01529
C         50.22041        46.07954        -1.33109
C         48.92533        46.71331        -1.05881
C         50.61905        49.04041        -0.48190
C         48.71224        48.07825        -0.91820
C         50.45013        50.03653         0.50524
C         49.11894        50.53701         0.90495
C         50.44550        52.55684         1.76699
C         49.12744        51.92653         1.58686
C         51.19852        21.44468         1.98308
C         52.53777        23.56046         1.98057
C         51.24021        22.84796         1.94162
C         52.54532        25.00203         1.52409
C         51.27047        25.68775         1.28090
C         52.54900        27.66365         0.48712
C         51.30084        27.03714         0.83134
C         52.57947        29.03524         0.11158
C         51.34648        29.80077         0.07453
C         52.68702        31.91298        -0.09976
C         51.35154        31.19607        -0.12814
C         52.65541        33.31477        -0.66295
C         51.41156        34.02387        -0.59320
C         52.69828        36.13579        -1.22758
C         51.45974        35.48205        -0.77967
C         52.67122        37.56834        -1.50878
C         51.45062        38.26577        -1.66755
C         52.66039        40.38371        -2.02449
C         51.43779        39.66944        -1.87375
C         52.66014        41.82960        -2.07691
C         51.43868        42.55387        -1.95100
C         52.70453        44.64923        -1.73419
C         51.45649        43.97227        -1.80219
C         52.78399        46.01384        -1.25772
C         51.54812        46.88669        -1.39351
C         52.80655        48.47517         0.25395
C         51.64673        48.11596        -0.49730
C         52.81546        49.69020         1.01755
C         51.61511        50.47790         1.16552
C         51.58370        51.80591         1.74410
C         54.95492        23.37159         1.48870
C         53.81658        22.80627         1.90513
C         55.03015        24.71674         0.81519
C         53.77195        25.56839         0.94585
C         55.02224        27.55257         0.12150
C         53.75960        26.87472         0.48247
C         55.04449        29.00712        -0.05847
C         53.81477        29.67849        -0.18429
C         55.12390        31.77496        -0.71002
C         53.78599        31.07514        -0.74638
C         55.10551        33.16125        -1.23713
C         53.83956        33.94775        -1.05142
C         55.15631        36.07517        -1.34141
C         53.85773        35.37560        -1.26984
C         55.15864        37.57855        -1.57335
C         53.87988        38.28225        -1.71649
C         55.15071        40.34097        -2.24565
C         53.89033        39.65897        -2.02776
C         55.11653        41.78529        -2.66744
C         53.88922        42.53539        -2.18247
C         55.16918        44.66994        -2.03929
C         53.89466        43.92898        -2.01197
C         55.28380        45.93179        -1.17577
C         53.97494        46.50927        -0.73219
C         55.16737        48.08349         0.78308
C         53.99857        47.70595         0.09068
C         55.14873        49.25856         1.58488
C         54.02508        50.05148         1.67361
C         57.10262        25.20596         2.26720
C         56.20501        25.56348         1.26994
C         57.39613        27.78002         1.04555
C         56.33390        26.87172         0.63912
C         57.45306        29.09863         0.51664
C         56.29317        29.69437        -0.11001
C         57.61093        31.77482        -0.68827
C         56.30330        31.09242        -0.50784
C         57.69570        33.19819        -1.08115
C         56.42451        33.84671        -1.56042
C         57.41536        36.04887        -2.22330
C         56.36383        35.33126        -1.71759
C         57.53569        37.48139        -2.22832
C         56.37700        38.24010        -2.06500
C         57.70248        40.34825        -2.23440
C         56.35157        39.66081        -2.27593
C         57.76019        41.82565        -2.70966
C         56.42641        42.52209        -2.42530
C         58.13274        44.57181        -1.32672
C         56.35581        43.86910        -2.38154
C         57.75117        45.44479        -0.33828
C         56.62793        46.47708        -0.55544
C         57.18394        47.17564         1.82472
C         56.34469        47.23482         0.73202
C         58.16822        26.04787         2.61841
C         59.40097        28.18742         2.38302
C         58.33044        27.32756         2.01929
C         59.54143        29.42106         1.76678
C         58.59840        29.89066         0.83088
C         59.89470        32.05868         0.45796
C         58.81640        31.14740         0.08616
C         59.97476        33.28989        -0.10434
C         58.92779        33.84716        -0.92519
C         59.98742        36.19048        -1.10197
C         59.21671        35.14527        -1.53587
C         59.95561        37.49883        -1.73267
C         58.85401        38.09863        -2.29424
C         60.14717        40.25732        -2.66934
C         58.85034        39.50990        -2.88035
C         60.18840        41.52460        -2.18141
C         59.02717        42.36984        -2.01527
C         59.99810        43.64503        -0.08247
C         59.09043        43.50721        -1.19265
C         59.73239        44.57053         0.89031
C         58.58823        45.44819         0.84234
C         58.31169        46.32171         1.88885
O         47.47042        24.58799         3.16809
O         29.13478        44.86887         3.50144
O         42.98956        42.66891        -2.98640
O         44.40192        51.07052         3.11121
O         25.94748        37.33069         0.12051
O         52.63696        24.62429         2.98666
O         55.95278        26.89481        -0.78909
O         49.05410        50.70081         2.36928
O         46.88727        36.11742         0.24196
O         29.44237        26.57467        -2.50558
O         28.00727        32.44226        -3.94516
O         36.00873        24.65016        -1.66673
O         39.25954        29.94324        -2.82621
O         42.94672        48.59666         2.90245
O         55.24000        45.99081        -2.65246
O         44.60095        46.35647         1.80833
O         36.18076        45.14434         2.45952
O         24.18138        29.90619        -3.92987
O         58.62106        30.95921        -1.34838
O         23.98729        38.37120        -2.90368
O         50.85269        36.27861         0.33590
O         58.51020        35.34360        -2.73921
O         55.66749        33.15969        -2.61749
O         49.63549        48.96051        -1.47960
O         57.51169        44.64007        -2.58804
O         33.23253        48.62244         3.76708
O         34.82915        31.08250        -3.45501
O         37.72366        41.40028        -2.67661
O         26.20904        44.88454         3.84074
O         55.35389        37.00481        -0.20966
O         33.87190        39.89794        -3.28892
H         34.70209        39.63399        -3.74326
O         54.96671        41.73534        -4.13003
H         54.81578        42.65010        -4.44987
O         53.05116        32.05660         1.30535
H         52.35591        32.58918         1.74656
O         39.18481        54.71962        -0.37876
H         39.99201        55.23511        -0.59080
O         35.14423        29.44105         0.41068
H         35.88359        29.04232         0.91873
O         46.14679        30.31011         1.87721
H         46.34946        29.51188         2.41248
O         41.92221        42.75189         1.15826
H         41.99933        43.47746         1.81562
O         38.88625        19.26782         4.62295
H         39.69351        18.82668         4.96384
O         48.78228        44.30410        -3.45567
H         48.92719        45.26584        -3.58399
O         46.13347        47.15934        -2.16596
H         46.08483        46.37425        -2.75438
O         53.42301        30.96623        -2.15558
H         54.22246        30.71032        -2.66248
O         32.57909        42.22574        -2.36828
H         33.03948        41.62124        -3.00394
O         31.90176        25.92514        -2.71004
H         31.02780        25.66126        -3.08309
O         40.18156        37.34205        -3.99965
H         40.93118        36.79188        -4.31356
O         35.01139        22.32083        -1.03144
H         35.45760        22.77812        -1.78265
O         26.66892        39.81364        -2.44180
H         25.79158        39.55704        -2.80517
O         57.11137        47.45725        -1.50192
H         56.90904        47.10788        -2.40034
O         37.67353        19.94930         0.35717
H         37.42613        20.57154        -0.36099
O         57.96999        41.88113        -4.14106
H         57.97619        42.82665        -4.40079
O         45.27051        41.95910        -3.79931
H         44.34465        42.15716        -4.08727
O         55.18977        24.38352        -0.59429
H         55.47280        25.21063        -1.06128
O         50.18192        36.93449        -3.17179
H         50.15308        37.69408        -3.79193
O         44.24271        38.01659        -3.88748
H         43.60165        38.61526        -4.32725
O         26.28895        30.24374        -0.55107
H         26.20542        29.49104         0.07288
O         58.61190        39.32003        -4.28799
H         58.45112        40.20832        -4.68469
O         32.70950        44.88196        -1.18109
H         32.60991        44.12875        -1.81562
O         57.97580        40.42136        -0.80421
H         57.87729        39.52030        -0.42830
O         48.87826        27.69198         2.78584
H         49.58942        27.19194         3.24247
O         31.18295        21.93271         0.10925
H         32.02953        21.45626        -0.03458
O         51.58319        47.36834        -2.77683
H         50.88220        48.05556        -2.85133
H         22.13097        26.42869        -1.91593
H         22.26707        28.29870        -3.57927
H         22.17167        31.49525        -4.01429
H         22.12776        33.87056        -3.30159
H         22.12910        35.66735        -2.77447
H         22.04891        38.01490        -2.00054
H         22.06536        39.53995        -0.40819
H         22.11092        41.70472         0.74300
H         22.16198        43.52545         1.31842
H         22.21272        45.79268         2.23273
H         25.32260        24.30228         0.89863
H         23.24602        25.04174        -0.20098
H         25.67234        48.83209         3.51551
H         23.53709        47.71718         3.14454
H         26.94398        23.90963         1.89961
H         27.29808        49.80364         3.54004
H         29.01258        22.66308         2.30199
H         29.37257        51.07523         3.37963
H         32.86312        21.07613         3.64488
H         30.72528        22.12303         3.08489
H         32.82274        53.24981         1.45900
H         30.77601        51.97634         1.90360
H         34.19122        19.59129         3.33975
H         34.46889        54.28461         1.30296
H         36.29187        18.47317         3.98137
H         36.55999        55.52433         0.99928
H         39.89715        15.65582         3.08567
H         37.79821        16.95470         3.12913
H         40.21690        57.77011         2.08183
H         38.12836        56.54157         1.71326
H         42.38080        15.61443         3.28484
H         42.69294        57.86982         1.86765
H         44.55869        16.73139         3.01925
H         44.87685        56.73210         1.77851
H         48.36799        18.81246         2.57141
H         46.24947        17.63980         2.79418
H         48.73389        54.66304         1.59552
H         46.59203        55.85337         1.61125
H         50.00520        19.66615         2.05256
H         50.49841        53.62065         2.03941
H         52.13108        20.86594         1.99782
H         52.53744        52.27995         2.01672
H         55.87912        22.77414         1.47762
H         53.84022        21.78121         2.30422
H         56.06507        49.56760         2.10601
H         54.06325        50.96963         2.27561
H         56.99784        24.23520         2.77269
H         56.94922        47.78383         2.71055
H         58.88769        25.72420         3.38309
H         60.13627        27.85276         3.12764
H         60.41099        30.04001         2.02488
H         60.64902        31.74670         1.19227
H         60.83737        33.93370         0.11979
H         60.65602        36.06292        -0.23740
H         60.87281        38.10111        -1.62732
H         61.09079        39.74238        -2.90514
H         61.17167        41.97780        -1.97443
H         60.83771        42.94466         0.02964
H         60.38535        44.63434         1.77327
H         58.95374        46.33508         2.78014
