         334
 CSIRO Nanostructure Databank - Neutral Graphene Oxide Data Set
C         30.33218        57.21046        -0.20481
C         30.28561        58.61818        -0.16918
C         29.09334        59.33320         0.01935
C         30.27001        61.46320         0.30890
C         29.09927        60.73690         0.20236
C         32.81011        52.91660        -0.13429
C         32.79328        54.33668        -0.10126
C         31.55924        55.08308        -0.12528
C         32.86187        57.15411        -0.58099
C         31.53572        56.46731        -0.26958
C         32.84174        58.66678        -0.37409
C         31.54144        59.40485        -0.26478
C         32.73218        61.45820         0.47635
C         31.55189        60.81539         0.21614
C         35.27954        48.61538         0.04640
C         35.26998        49.98915        -0.05963
C         33.93247        50.69476        -0.09610
C         35.25071        52.89261        -0.11002
C         34.00503        52.20474        -0.11376
C         35.25410        54.32277        -0.04820
C         34.02537        55.02057        -0.00780
C         35.28893        57.20487         0.04164
C         33.97595        56.50383         0.24463
C         35.27971        58.62790         0.11277
C         34.05812        59.33402         0.10374
C         35.27871        61.47514         0.29535
C         34.03149        60.72463         0.67077
C         37.73419        44.34574         0.32627
C         37.73491        45.72591         0.26802
C         36.50906        46.47226         0.23681
C         37.74529        48.58081         0.00724
C         36.49950        47.85794         0.10041
C         37.71267        49.99567        -0.14523
C         36.50723        50.72299        -0.14831
C         37.70213        52.90962        -0.19754
C         36.50159        52.17850        -0.17010
C         37.72694        54.34850        -0.15232
C         36.49848        55.05013        -0.05539
C         37.73355        57.21245        -0.03450
C         36.49655        56.49020        -0.01855
C         37.73421        58.64101         0.06582
C         36.51442        59.35187         0.16264
C         37.75157        61.48743         0.11975
C         36.49823        60.80098         0.18392
C         40.26935        40.05913         0.87879
C         40.22258        41.48328         0.72096
C         39.02752        42.15148         0.57730
C         40.20288        44.33239         0.76783
C         39.02171        43.59403         0.14061
C         40.22460        45.79936         0.40413
C         39.00267        46.46445         0.23005
C         40.22760        48.61325         0.15631
C         38.98069        47.88401         0.08169
C         40.23994        49.99598        -0.00075
C         38.99284        50.69276        -0.33847
C         40.25228        52.92035        -0.14407
C         38.97625        52.20383        -0.36381
C         40.23316        54.37934        -0.25145
C         38.96074        55.07413        -0.24879
C         40.18641        57.24164        -0.13433
C         38.96265        56.50501        -0.16346
C         40.18128        58.63069         0.04302
C         38.96908        59.35510         0.09411
C         40.22592        61.50334         0.13759
C         38.97933        60.80314         0.13129
C         42.71307        35.79588         1.06908
C         42.70145        37.19932         0.95601
C         41.48901        37.93652         0.97157
C         42.77087        40.09439         1.05917
C         41.46555        39.34486         0.91442
C         42.74146        41.50645         0.52996
C         41.49295        42.22274         0.56426
C         42.68914        44.38592         0.06747
C         41.47644        43.59184         0.45346
C         42.72852        45.73520         0.79113
C         41.45499        46.51540         0.49280
C         42.71336        48.66642         0.60076
C         41.45664        47.90169         0.40815
C         42.75359        50.09390         0.27126
C         41.43597        50.80442         0.43098
C         42.71042        52.93386        -0.36110
C         41.42109        52.22908        -0.03885
C         42.70112        54.35227         0.17948
C         41.42430        55.06839        -0.20017
C         42.74229        57.19468        -0.08993
C         41.45996        56.53102        -0.51627
C         42.73869        58.61664         0.29185
C         41.43951        59.35949         0.33493
C         42.70767        61.49377         0.25821
C         41.46495        60.83771         0.22449
C         45.11931        32.92035         0.88938
C         43.92106        33.63746         1.04715
C         45.16296        35.74616         0.79870
C         43.91369        35.04904         0.99133
C         45.15808        37.13041         0.64800
C         43.95552        37.89792         0.73531
C         45.17003        40.01790         0.33319
C         43.97877        39.30213         0.62498
C         45.16818        41.41269         0.22059
C         43.94803        42.17096         0.27864
C         45.17817        44.32448         0.13288
C         43.99285        43.62096         0.16752
C         45.20179        45.78622         0.23589
C         44.01301        46.46748         0.44954
C         45.26152        48.66785         0.28798
C         44.03552        47.91872         0.61258
C         45.22803        50.05069         0.20886
C         43.96910        50.77240         0.19367
C         45.17173        52.92281        -0.15481
C         43.98838        52.20703        -0.01100
C         45.12430        54.36369        -0.39118
C         43.95547        55.06808        -0.25633
C         45.20739        57.21949        -0.08505
C         43.93011        56.51980        -0.20643
C         45.20873        58.66626         0.14476
C         44.00017        59.36959         0.22533
C         45.19430        61.49869         0.32287
C         43.96867        60.80659         0.28639
C         46.33088        33.56485         0.69865
C         47.63135        35.65088         0.57733
C         46.41293        34.99716         0.68228
C         47.70635        37.13992         0.78261
C         46.43091        37.80210         0.31284
C         47.71964        40.00916         0.22868
C         46.43461        39.28068         0.11195
C         47.70219        41.37784         0.15361
C         46.43150        42.09986        -0.10308
C         47.73469        44.31064         0.07454
C         46.45361        43.61649        -0.09956
C         47.75698        45.77321         0.42229
C         46.45664        46.50613         0.17616
C         47.73086        48.61997        -0.07219
C         46.49306        47.90899         0.15362
C         47.73153        50.03962        -0.18728
C         46.52739        50.81951         0.31242
C         47.61208        52.94267        -0.46835
C         46.45199        52.25596        -0.15757
C         47.65376        54.37664        -0.65885
C         46.35004        55.11703        -0.84859
C         47.68371        57.13721         0.06627
C         46.36620        56.52623        -0.29232
C         47.67343        58.65211         0.09426
C         46.44470        59.36466         0.20560
C         47.66866        61.46966         0.50398
C         46.44806        60.80926         0.33851
C         48.92596        37.84217         0.25653
C         50.16929        39.92784        -0.14595
C         48.96638        39.23867         0.15422
C         50.28714        41.35274         0.06605
C         48.93654        42.15731         0.26475
C         50.18627        44.29868        -0.15658
C         48.93929        43.61622         0.01372
C         50.16721        45.73643        -0.32081
C         48.97819        46.46994        -0.13274
C         50.14796        48.58766        -0.61880
C         48.95237        47.88823        -0.28999
C         50.12907        50.02281        -0.80136
C         48.88266        50.71932        -0.59163
C         50.07488        52.93701        -1.16254
C         48.82373        52.17663        -0.83513
C         50.11978        54.37728        -0.80145
C         48.85251        55.06810        -0.72135
C         50.12736        57.22051        -0.23032
C         48.84859        56.58720        -0.75447
C         50.12884        58.55214         0.09706
C         48.89426        59.30111         0.20199
C         50.19900        61.42059         0.39451
C         48.93118        60.70354         0.74582
C         51.40468        42.16105        -0.40096
C         52.64803        44.22941        -0.85821
C         51.37928        43.54198        -0.40552
C         52.61959        45.73375        -0.76707
C         51.38470        46.43366        -0.62057
C         52.59265        48.54122        -0.98450
C         51.37625        47.85636        -0.73849
C         52.56002        49.96850        -1.30470
C         51.30163        50.70605        -1.16120
C         52.57388        52.78176        -0.64422
C         51.37844        52.19820        -1.43516
C         52.58127        54.29285        -0.57567
C         51.32979        55.01083        -0.57198
C         52.57051        57.22266        -0.67161
C         51.39555        56.42916        -0.04984
C         52.66556        58.58988         0.00069
C         51.40279        59.22876         0.55788
C         52.64748        61.40964         0.38530
C         51.38667        60.73550         0.35805
C         53.81080        46.42681        -0.88182
C         55.06141        48.56621        -0.88680
C         53.83570        47.85125        -0.95656
C         55.10754        49.97428        -0.86572
C         53.90912        50.72859        -1.30314
C         55.08010        52.83978        -0.47148
C         53.91744        52.25655        -1.23153
C         55.04013        54.22709        -0.20786
C         53.77856        54.95132        -0.37476
C         55.14396        57.13162        -0.28072
C         53.85985        56.42504        -0.55732
C         55.18088        58.66450        -0.24926
C         53.83730        59.26366         0.12692
C         55.07751        61.32059         0.76564
C         53.84627        60.69395         0.46164
C         56.25745        50.67311        -0.47225
C         57.44013        52.77027         0.13650
C         56.27261        52.09278        -0.27508
C         57.44225        54.17435         0.32563
C         56.21789        54.89767         0.18292
C         57.48883        57.04840         0.63997
C         56.15437        56.35656         0.55747
C         57.50141        58.44131         0.80003
C         56.30597        59.21935         0.60815
C         57.46470        61.27334         1.54081
C         56.26454        60.57799         0.93589
C         58.64724        54.86755         0.63290
C         59.91552        56.96062         0.96643
C         58.69340        56.28157         0.75277
C         59.95357        58.36111         1.15263
C         58.73512        59.11208         1.12626
C         59.97323        61.14033         1.62960
C         58.75597        60.50158         1.39857
C         61.17818        59.04872         1.39407
C         61.18170        60.41387         1.61025
O         53.34184        50.26131        -2.54124
O         49.14574        52.58603        -2.24412
O         39.05099        51.43308        -1.63157
O         46.42260        42.82985        -1.37421
O         46.43845        38.34580        -1.04040
O         42.03480        58.85304         1.59510
O         43.38891        48.34703         1.89536
O         54.87030        56.66738        -1.63266
O         49.76093        41.79126         1.37810
O         32.23565        59.31875        -1.57032
O         41.50038        56.61197        -2.00075
H         40.81724        55.99788        -2.34689
O         39.28676        43.58659        -1.30737
H         38.50606        43.19393        -1.75139
O         42.52062        44.72645        -1.34564
H         42.31952        43.90203        -1.83664
O         54.12398        52.76026        -2.56393
H         53.53812        52.23965        -3.16396
O         49.02837        60.49450         2.25056
H         48.16116        60.13546         2.54108
O         46.22085        55.26436        -2.30343
H         45.35438        55.68770        -2.48339
O         33.17325        50.23138        -1.22975
H         33.65629        50.48771        -2.04212
O         33.15994        56.90542        -1.96905
H         32.69932        57.60650        -2.48499
O         51.66163        56.29980         1.37199
H         51.56303        57.19327         1.79472
O         52.43982        52.26814         0.70539
H         52.79837        52.93036         1.33301
O         52.26652        57.42735        -2.06892
H         53.12359        57.47007        -2.54896
O         55.49856        59.13084        -1.59249
H         55.32689        58.37508        -2.20329
O         48.67202        57.03142        -2.11796
H         49.40762        56.67203        -2.65638
O         53.77836        43.69674        -0.15121
H         53.62638        43.82848         0.80696
O         51.62184        52.37505        -2.85004
H         50.74541        52.27168        -3.29006
O         42.95188        40.26288         2.52095
H         42.97208        39.36362         2.91324
O         41.26211        50.91851         1.90449
H         41.70406        50.14504         2.31903
O         40.05976        44.29214         2.21527
H         40.90584        44.63684         2.59024
O         42.71895        54.28483         1.63117
H         42.69911        55.20069         1.97986
O         51.45047        59.01569         2.01358
H         50.65305        59.48202         2.37948
O         47.91432        45.80363         1.90362
H         48.11615        46.73099         2.15247
O         55.57914        56.40906         1.91335
H         56.22246        55.99269         2.52531
O         47.94101        56.71759         1.44726
H         47.15924        56.95803         1.98753
O         57.59539        62.59587         1.00463
H         57.73830        62.51863         0.03905
O         46.75459        50.94697         1.76944
H         46.54284        50.08170         2.18048
O         34.10086        60.52592         2.15967
H         34.98516        60.14584         2.35402
O         42.73924        45.49572         2.22911
H         42.93459        46.36527         2.65070
O         33.59999        56.70295         1.64376
H         34.25496        56.23568         2.20337
O         42.71904        53.07026        -1.81910
H         42.62513        52.17714        -2.21170
O         47.72169        37.35486         2.24780
H         48.52859        36.92520         2.60259
H         29.38765        56.65823        -0.07349
H         28.13796        58.78969         0.05082
H         30.23430        62.53978         0.52984
H         28.13568        61.25327         0.31919
H         31.85874        52.36630        -0.17650
H         30.61119        54.53157        -0.02523
H         32.70960        62.51803         0.77524
H         34.32292        48.07426         0.09731
H         33.34440        50.38380         0.81052
H         35.25843        62.57498         0.27700
H         36.77918        43.79661         0.33144
H         35.55632        45.92493         0.29576
H         37.75117        62.58812         0.12890
H         39.31637        39.50704         0.90329
H         38.07822        41.59451         0.62920
H         40.21053        62.60327         0.09788
H         41.76016        35.26223         1.20457
H         40.53493        37.38721         0.98485
H         42.72236        62.59433         0.23395
H         45.09131        31.82155         0.91850
H         42.97456        33.09687         1.19067
H         45.19325        62.59695         0.38548
H         47.25497        32.97948         0.58643
H         48.56212        35.06567         0.51199
H         47.68242        62.56095         0.64425
H         49.86800        37.27662         0.17575
H         51.03453        39.36851        -0.52943
H         50.19200        62.51999         0.33122
H         52.30271        41.64700        -0.77497
H         52.81222        43.96489        -1.94156
H         52.66325        62.50838         0.45069
H         54.75626        45.86770        -0.93066
H         55.98554        48.00261        -0.69022
H         55.09328        62.39872         0.98380
H         57.17484        50.10408        -0.25806
H         58.37462        52.20678         0.27201
H         57.26862        61.40392         2.64381
H         59.58048        54.29404         0.72779
H         60.85109        56.38383         1.01541
H         59.98375        62.22058         1.83173
H         62.11883        58.47961         1.40587
H         62.12997        60.93945         1.79064
