         404
 CSIRO Nanostructure Databank - Neutral Graphene Oxide Data Set
C          1.76785         2.34565        -2.91530
C          1.64945         3.71155        -2.53319
C          2.83921         1.57594        -2.52441
C          2.55955         4.30156        -1.67226
C          1.30384         6.44956        -1.51129
C          1.25211         7.80691        -1.33679
C          2.51816         5.71218        -1.32703
C          2.44496         8.56675        -1.11409
C          1.24231        10.73254        -0.92555
C          1.25511        12.10139        -0.83068
C          2.43475         9.97312        -1.08338
C          2.48278        12.86311        -0.89896
C          1.27841        15.05921        -0.69467
C          1.26729        16.46443        -0.48593
C          2.44531        14.32503        -0.85606
C          2.43344        17.21159        -0.41362
C          2.47627        18.58584         0.00784
C          3.86637         2.12103        -1.68935
C          3.64913         3.47064        -1.13640
C          5.05498         1.44918        -1.44809
C          4.86282         4.18491        -0.50396
C          3.67378         6.39441        -0.88587
C          3.68353         7.84292        -0.88639
C          4.88199         5.66965        -0.53057
C          4.85863         8.55336        -0.59768
C          3.72810        10.69855        -1.35181
C          3.68242        12.18401        -1.06041
C          4.93987         9.98866        -0.75207
C          4.96510        12.90781        -1.15283
C          3.70755        15.05991        -1.03636
C          3.70444        16.57978        -0.78970
C          4.99334        14.35372        -0.89846
C          4.96392        17.20865        -0.37510
C          3.66321        19.24340         0.17593
C          4.93988        18.57111         0.04947
C          6.19664         2.09646        -0.86994
C          6.12777         3.44845        -0.48584
C          7.44701         1.39840        -0.81024
C          7.32656         4.13028         0.00285
C          6.03416         6.34490        -0.18814
C          6.03070         7.81130        -0.09971
C          7.28804         5.64811         0.18187
C          7.35414         8.51460         0.04196
C          6.13755        10.66221        -0.61848
C          6.26321        12.11528        -0.93411
C          7.40851         9.92578        -0.41272
C          7.43427        12.86851        -0.48746
C          6.17260        15.02819        -0.61837
C          6.16329        16.46616        -0.35282
C          7.41072        14.27834        -0.41966
C          7.35177        17.12456         0.06380
C          6.14044        19.22958         0.35253
C          7.37145        18.52763         0.35747
C          8.64835         2.02400        -0.44911
C          8.63163         3.43878        -0.09335
C          9.89562         1.35799        -0.55286
C          9.78408         4.11833         0.19612
C          8.58003         6.38583         0.12203
C          8.63432         7.75977         0.07875
C          9.82635         5.59902         0.10302
C          9.88273         8.50575         0.26282
C          8.68888        10.65612        -0.12328
C          8.57694        12.12064         0.09720
C          9.89273         9.92456         0.36113
C          9.84220        12.82768         0.43644
C          8.58291        14.98239        -0.02016
C          8.55313        16.37450         0.24733
C          9.90752        14.26121        -0.07095
C          9.69426        17.03712         0.79007
C          8.60754        19.18192         0.64239
C          9.81351        18.47344         0.83758
C         11.11167         2.00003        -0.23502
C         11.05606         3.37434         0.31779
C         12.35476         1.37148        -0.33180
C         12.34432         4.11693         0.58919
C         11.12875         6.33648         0.25562
C         11.09712         7.80551         0.44205
C         12.32585         5.62218         0.87120
C         12.31409         8.49108         0.69094
C         11.08757        10.62152         0.70605
C         11.12339        12.08262         0.68070
C         12.30200         9.89753         0.89653
C         12.28902        12.79120         0.88702
C         10.96779        14.93754         0.72485
C         10.75086        16.18199         1.22670
C         12.28474        14.26620         0.66007
C         12.60663        17.30513         1.27179
C         11.07010        19.20193         0.89131
C         12.38503        18.68250         0.90938
C         13.59186         2.06829        -0.13381
C         13.60022         3.46635         0.17719
C         14.81974         1.39734        -0.30776
C         14.80466         4.20518         0.13529
C         13.59668         6.35014         0.49593
C         13.57005         7.75570         0.59195
C         14.80128         5.64820         0.28067
C         14.80275         8.48070         0.58624
C         13.56294        10.58135         1.29632
C         13.56320        12.16167         1.31266
C         14.82331         9.81837         1.07159
C         14.81293        12.98340         1.16012
C         13.54877        15.05602         0.62640
C         13.62993        16.53080         0.77920
C         14.81966        14.32749         0.74800
C         14.82994        17.20451         0.36839
C         13.57617        19.36306         0.50576
C         14.79434        18.66754         0.33458
C         16.05233         2.08539        -0.20097
C         16.03401         3.51090        -0.03512
C         17.29541         1.40973        -0.26823
C         17.27069         4.22579         0.01558
C         16.03381         6.37116         0.14792
C         16.03920         7.80815         0.32262
C         17.24250         5.65911         0.03028
C         17.25327         8.54739         0.30438
C         16.08873        10.33550         1.38495
C         16.09165        12.44491         1.43307
C         17.30404         9.86552         0.82137
C         17.28731        12.94682         0.87947
C         16.03063        15.03994         0.48752
C         16.00119        16.46602         0.22235
C         17.25912        14.32241         0.47516
C         17.26354        17.18361        -0.18756
C         16.03385        19.35229         0.21609
C         17.25751        18.66226         0.15602
C         18.52112         2.10085        -0.11051
C         18.49501         3.52465         0.02554
C         19.76655         1.40673        -0.09909
C         19.74338         4.25429         0.44018
C         18.49995         6.37675        -0.21093
C         18.50043         7.91638        -0.13989
C         19.77464         5.69981         0.00678
C         19.77792         8.60486         0.09394
C         18.49203        10.70904         0.68375
C         18.46848        12.11516         0.71523
C         19.75158        10.02428         0.33651
C         19.66553        12.84975         0.13036
C         18.50875        15.03907         0.36240
C         18.50875        16.47809         0.29257
C         19.70891        14.32199         0.44298
C         19.66459        17.18136         0.55943
C         18.48050        19.32985         0.32247
C         19.70956        18.63327         0.51085
C         21.00680         2.09206         0.00547
C         21.01945         3.51158         0.14830
C         22.25744         1.41947        -0.09680
C         22.22986         4.20451         0.20424
C         20.94967         6.41340        -0.01205
C         20.97684         7.86324         0.00631
C         22.23362         5.67462        -0.00770
C         22.24480         8.54736         0.09348
C         20.95526        10.73904         0.22479
C         20.98551        12.16436         0.33760
C         22.20421        10.00919        -0.05963
C         22.17150        12.90107         0.39521
C         20.93680        14.99540         0.67216
C         20.86436        16.43541         0.98088
C         22.17249        14.32058         0.65307
C         22.15127        17.19285         1.18291
C         20.92768        19.31374         0.67494
C         22.16421        18.65228         0.92507
C         23.46575         2.10674         0.04740
C         23.46102         3.50223         0.24025
C         24.77097         1.36011        -0.07718
C         24.70387         4.20281         0.64304
C         23.51513         6.42994         0.08549
C         23.47891         7.90843         0.17522
C         24.71575         5.71726         0.61879
C         24.73126         8.61838         0.29935
C         23.51367        10.76020        -0.03707
C         23.47232        12.24565         0.14397
C         24.75076        10.02861         0.28548
C         24.74281        12.96849         0.46371
C         23.41687        15.03583         0.91560
C         23.41837        16.44264         1.10813
C         24.66702        14.36546         0.93498
C         24.62168        17.14989         1.30545
C         23.38407        19.30882         0.97193
C         24.61688        18.61914         1.27089
C         26.03886         2.12953         0.25800
C         25.99668         3.47951         0.66151
C         27.21930         1.37195         0.00632
C         27.17194         4.28496         0.93278
C         25.99206         6.45621         0.57977
C         25.97298         7.88681         0.46756
C         27.17888         5.73916         0.77048
C         27.19012         8.60327         0.56600
C         25.95418        10.76053         0.54666
C         25.97643        12.18256         0.68626
C         27.18240        10.04064         0.63485
C         27.16055        12.87204         0.99162
C         25.86369        15.04209         1.25497
C         25.82868        16.44180         1.49670
C         27.13240        14.31150         1.25066
C         27.04813        17.16983         1.91960
C         25.78497        19.31930         1.43036
C         27.07015        18.70551         1.91499
C         28.45468         1.57829         0.63212
C         28.37075         3.69700         1.34169
C         29.70941         1.05355         0.24193
C         29.63209         4.37090         1.25708
C         28.42340         6.46271         0.80545
C         28.43202         7.88616         0.69261
C         29.65544         5.78211         0.94740
C         29.66881         8.57715         0.72193
C         28.39326        10.76312         0.75225
C         28.40679        12.15709         0.97949
C         29.66023        10.04045         0.57165
C         29.65025        12.83751         1.25345
C         28.31399        14.97894         1.49333
C         28.35558        16.42228         1.83025
C         29.57851        14.24711         1.63735
C         29.58978        17.16879         1.46897
C         28.26728        19.24718         1.17516
C         29.47157        18.55508         1.06298
C         30.93064         1.48538         0.80488
C         30.82370         3.67259         1.35741
C         32.23661         1.16675         0.42993
C         32.09829         4.27722         0.93516
C         30.89411         6.47379         0.95609
C         30.89995         7.89467         0.87494
C         32.13792         5.75939         1.06056
C         32.15122         8.59675         1.04583
C         30.95498        10.79059         0.77127
C         30.89727        12.20081         1.20904
C         32.16491        10.01552         1.08148
C         32.13936        12.90833         1.34934
C         30.89280        15.05583         1.61989
C         30.79870        16.49259         1.29512
C         32.13006        14.32807         1.31780
C         31.93909        17.12943         0.71036
C         30.61184        19.18298         0.47338
C         31.81611        18.49895         0.27603
C         33.39091         1.96128         0.75713
C         33.36211         3.46523         0.77812
C         34.63575         1.35225         0.71266
C         34.64365         4.19373         1.02390
C         33.34752         6.42461         1.15107
C         33.36911         7.86279         1.21477
C         34.59929         5.64519         1.37316
C         34.56283         8.56848         1.54523
C         33.33221        10.71924         1.42100
C         33.39755        12.17894         1.28522
C         34.44607         9.93899         1.80821
C         34.57738        12.86341         0.97937
C         33.27698        15.06284         0.94183
C         33.16460        16.42299         0.53304
C         34.54087        14.32892         0.79998
C         34.25321        17.05379        -0.19777
C         32.90454        19.11401        -0.41226
C         34.07822        18.41735        -0.70084
C         35.86482         2.07245         0.79140
C         35.83761         3.51130         1.03028
C         37.07086         1.40228         0.61214
C         37.15086         4.19739         1.16688
C         35.89432         6.40728         1.56349
C         35.90187         7.91635         1.56901
C         37.20851         5.70562         1.33745
C         37.17442         8.65125         1.07345
C         36.21029        10.97359         1.24528
C         35.86024        12.22382         0.67624
C         37.12297        10.08653         0.66568
C         36.75485        12.75243        -0.27635
C         35.62220        14.98533        -0.04540
C         35.38321        16.34291        -0.55103
C         36.43060        14.06377        -0.93708
C         36.57958        17.02037        -1.17457
C         35.06584        18.97986        -1.55501
C         36.23040        18.28513        -1.91897
C         38.30557         2.10438         0.45473
C         38.33012         3.50947         0.60180
C         39.50114         1.41563         0.10147
C         39.49503         4.24809         0.29045
C         38.33190         6.44113         0.68962
C         38.27000         7.82801         0.48072
C         39.46877         5.69061         0.23715
C         39.28129         8.48069        -0.30590
C         38.01578        10.62974        -0.29787
C         37.86659        11.99004        -0.71557
C         39.13825         9.84536        -0.74094
C         38.82621        12.57333        -1.63107
C         37.60096        14.74422        -1.60157
C         37.52459        16.09630        -1.91486
C         38.69370        13.93904        -2.06310
C         38.47160        16.68456        -2.80815
C         37.15469        18.79400        -2.83347
C         38.29918        18.04515        -3.24285
C         40.65885         2.11746        -0.14895
C         40.66735         3.53884        -0.11028
C         41.82423         4.27110        -0.49978
C         40.57557         6.36601        -0.33933
C         40.44614         7.75595        -0.68466
C         41.76832         5.63580        -0.63634
C         41.43769         8.40537        -1.47059
C         40.11302        10.44589        -1.57326
C         39.94101        11.80871        -2.04586
C         41.27137         9.69577        -1.91315
C         40.89153        12.40922        -2.91787
C         39.67883        14.52403        -2.90568
C         39.54352        15.90305        -3.32612
C         40.76654        13.71666        -3.33140
C         40.45611        16.51116        -4.22322
C         39.22801        18.59969        -4.14632
C         40.29966        17.83808        -4.61594
O         30.43633        10.54720        -0.58440
O          8.86363        12.55413         1.48635
O         10.71483         5.92471        -1.07616
O         12.89026        14.63936        -0.67749
O          3.70841        16.02060        -2.14305
O         30.84026         2.40067         1.89593
O         21.33024        16.79583         2.33806
O          5.80374        12.47317        -2.29288
O         22.88457        10.40715        -1.31290
O         28.38782         2.37672         1.80397
O         24.24519        12.89466        -0.93508
O         11.67698        16.71417         2.12775
O         35.52403        10.59826         2.40788
O          8.36141        10.21785        -1.49107
O          6.52003         8.32457         1.22314
O         18.43863         7.21468        -1.41619
O         36.90729         8.41519         2.48979
O         23.05638         5.95610        -1.22523
O         32.60416         3.91661        -0.42477
O         35.76555        14.92977         1.39100
O          3.80420         3.58975         0.31160
O          7.15249         4.76006         1.33632
O         24.47474         5.01062         1.87579
O         27.69714        16.66480         3.13674
O         37.51930         4.82282         2.45139
O         30.28138        14.62493         2.86993
O         16.17671        11.37127         2.31993
O         11.65305         3.40301         1.67974
O         35.16446         5.89926         2.71698
O         13.46131        11.35997         2.52310
O          3.92485        10.57487        -2.80595
H          4.68952        11.16281        -3.03233
O         37.37790        17.46192        -0.01559
H         36.79935        18.01854         0.54809
O         27.23076        19.16866         3.29234
H         27.64034        18.41793         3.78755
O         19.66235         4.32258         1.92159
H         19.64626         3.39947         2.25433
O         24.89639         0.85616        -1.41869
H         24.01388         0.55651        -1.71872
O         10.29253        14.18457        -1.47522
H         11.24625        14.42674        -1.55024
O         19.44154        12.77367        -1.33346
H         20.29379        12.97369        -1.77719
O         35.49292        13.75216        -2.03103
H         35.97565        13.21411        -2.69402
O         17.30251        17.12482        -1.65710
H         18.08012        17.64454        -1.95149
O         12.19557         5.80976         2.30419
H         11.84706         4.96255         2.67356
H          1.00373         1.91843        -3.57939
H          0.82256         4.29975        -2.95449
H          2.94006         0.54075        -2.88090
H          0.38404         5.90595        -1.76657
H          0.29575         8.32855        -1.47647
H          0.28241        10.20809        -0.81525
H          0.30334        12.62761        -0.68373
H          0.31123        14.54190        -0.63250
H          0.30427        16.95111        -0.27314
H          1.52530        19.10865         0.18775
H          5.17650         0.42351        -1.82745
H          3.66576        20.29931         0.48343
H          7.46999         0.34364        -1.12176
H          6.12108        20.29362         0.63115
H          9.91662         0.31825        -0.91175
H          8.60961        20.27984         0.72201
H         12.39836         0.31665        -0.64177
H         10.97720        20.28034         0.67844
H         14.81956         0.31646        -0.51102
H         13.55502        20.45103         0.34110
H         17.30610         0.31719        -0.39590
H         16.04672        20.44772         0.33042
H         19.76653         0.31369        -0.22010
H         18.47974        20.42695         0.41819
H         22.26564         0.32970        -0.25481
H         20.93373        20.41057         0.58371
H         24.72926         0.47249         0.63025
H         23.42230        20.39850         0.82322
H         27.12180         0.53381        -0.70068
H         25.76492        20.41760         1.35864
H         29.74405         0.38761        -0.63181
H         28.23688        20.30122         0.85939
H         32.40881         0.24694        -0.15035
H         30.52375        20.22646         0.13687
H         34.68851         0.26253         0.56899
H         32.78174        20.14212        -0.78413
H         37.06167         0.31120         0.47250
H         34.86895        19.96540        -2.00461
H         39.48422         0.31909         0.02619
H         36.98124        19.78251        -3.28615
H         41.58114         1.58792        -0.42798
H         42.74653         3.72577        -0.74608
H         42.66232         6.16914        -0.98441
H         42.34489         7.86378        -1.76679
H         42.05832        10.14047        -2.53497
H         41.75492        11.83277        -3.27359
H         41.53535        14.13393        -3.99485
H         41.30182        15.93862        -4.62643
H         39.09941        19.63821        -4.48324
H         41.02065        18.28490        -5.31468
