         424
 CSIRO Nanostructure Databank - Neutral Graphene Oxide Data Set
C          1.45396         1.96412        -1.41419
C          1.44439         3.36105        -1.51436
C          2.60744         1.29121        -1.04138
C          2.59839         4.12296        -1.23568
C          1.46380         6.28271        -1.76508
C          1.47388         7.65724        -1.87711
C          2.61247         5.56915        -1.34476
C          2.63370         8.41483        -1.57251
C          1.48845        10.57479        -2.09514
C          1.49006        11.94984        -2.17640
C          2.63790         9.85160        -1.67740
C          2.64227        12.70911        -1.83394
C          1.52798        14.88765        -2.37586
C          1.56068        16.26622        -2.44990
C          2.64215        14.15296        -1.89458
C          2.69433        16.99410        -2.00210
C          2.73398        18.44074        -2.14425
C          3.79488         2.01538        -0.74962
C          3.78990         3.44838        -0.84056
C          4.97753         1.34316        -0.38250
C          4.97559         4.18518        -0.53563
C          3.79522         6.29947        -1.03443
C          3.80763         7.72817        -1.14531
C          4.97940         5.60940        -0.61847
C          4.99494         8.46379        -0.82908
C          3.81802        10.57835        -1.35045
C          3.80787        12.00639        -1.42195
C          5.00080         9.87917        -0.93876
C          4.99398        12.73722        -1.07134
C          3.79861        14.87554        -1.45735
C          3.79988        16.30487        -1.48338
C          4.95995        14.14727        -1.06359
C          4.88964        17.12962        -0.80799
C          3.87700        19.14510        -1.92730
C          5.07625        18.48976        -1.45154
C          6.16256         2.05427        -0.09351
C          6.16494         3.49531        -0.15384
C          7.35062         1.37165         0.23154
C          7.34667         4.21642         0.15900
C          6.16404         6.34222        -0.29099
C          6.17270         7.76682        -0.38243
C          7.34887         5.65212         0.10587
C          7.34743         8.48350        -0.01565
C          6.19949        10.62140        -0.64863
C          6.18722        12.01409        -0.73345
C          7.40219         9.91972        -0.21132
C          7.43482        12.78097        -0.34958
C          6.19553        14.88536        -0.71419
C          6.20004        16.37073        -0.65007
C          7.48036        14.15394        -1.03858
C          7.49390        17.05988        -0.83700
C          6.29157        19.11457        -1.46808
C          7.52778        18.43591        -1.11962
C          8.54064         2.07618         0.51286
C          8.53759         3.51454         0.51314
C          9.75017         1.38159         0.73358
C          9.72665         4.22197         0.85972
C          8.51942         6.38434         0.46524
C          8.49226         7.79487         0.44906
C          9.73293         5.67881         0.85334
C          9.64025         8.58262         1.04369
C          8.61362        10.59598        -0.07094
C          8.71647        11.99223        -0.62517
C          9.79204         9.96829         0.44930
C          9.91996        12.77229        -0.15669
C          8.71638        14.90953        -0.61098
C          8.70624        16.32240        -0.65224
C          9.90042        14.19890        -0.27945
C          9.94091        17.04054        -0.54123
C          8.76944        19.11731        -1.13586
C          9.96590        18.45804        -0.80936
C         10.94346         2.07584         0.99132
C         10.89984         3.50139         1.15288
C         12.18924         1.37810         0.96694
C         12.11850         4.19919         1.60053
C         10.90406         6.38347         1.11364
C         10.94529         7.82065         1.06276
C         12.10710         5.71726         1.74138
C         12.14021         8.50552         1.19164
C         10.97117        10.67350         0.63043
C         11.04511        12.10255         0.34488
C         12.11763        10.00631         1.37350
C         12.22906        12.85555         0.64553
C         11.09612        14.93538         0.00345
C         11.11708        16.34825        -0.19505
C         12.26121        14.23215         0.43676
C         12.38256        17.06001        -0.16537
C         11.21304        19.14936        -0.76520
C         12.40820        18.48924        -0.47942
C         13.41316         2.04463         1.03643
C         13.43164         3.46204         1.46380
C         14.64037         1.39967         0.80506
C         14.68245         4.23110         1.30546
C         13.42029         6.38676         1.37134
C         13.40797         7.79643         1.26010
C         14.64718         5.67425         1.35426
C         14.63567         8.51867         1.26100
C         13.45366        10.67534         1.13870
C         13.46326        12.18979         1.22922
C         14.63688         9.97953         1.18232
C         14.70811        12.77275         0.54718
C         13.48906        15.03651         0.80893
C         13.53908        16.39042         0.14340
C         14.77572        14.26716         0.65994
C         14.86028        17.01908        -0.19698
C         13.64227        19.19181        -0.35869
C         14.84537        18.52584        -0.10022
C         15.86725         2.10373         0.84904
C         15.86864         3.54812         1.04807
C         17.07741         1.42024         0.66704
C         17.12367         4.25986         0.97385
C         15.87945         6.39433         1.35723
C         15.84706         7.81136         1.40089
C         17.14290         5.68853         1.23729
C         17.07962         8.55175         1.72112
C         15.92997        10.69286         1.18407
C         15.97543        12.07495         0.97357
C         17.14247         9.99605         1.46148
C         17.20323        12.79261         1.06361
C         15.99013        14.93234         0.65686
C         16.04659        16.36062         0.44855
C         17.22727        14.21042         0.88682
C         17.23703        17.05897         0.55745
C         16.06330        19.19873         0.08866
C         17.26704        18.50336         0.35784
C         18.32069         2.10411         0.66125
C         18.30750         3.54494         0.77186
C         19.53518         1.41727         0.50437
C         19.58572         4.24774         0.64668
C         18.35672         6.37056         1.36124
C         18.39191         7.77469         1.79946
C         19.61757         5.75270         0.94290
C         19.64861         8.53326         1.67682
C         18.38473        10.66395         1.48363
C         18.42048        12.08596         1.32590
C         19.63334         9.91734         1.60663
C         19.65689        12.79930         1.40582
C         18.44347        14.93135         1.00829
C         18.46250        16.36000         0.86325
C         19.66588        14.22905         1.25962
C         19.67403        17.07790         0.95650
C         18.48726        19.18956         0.47339
C         19.69898        18.51954         0.75222
C         20.79675         2.08548         0.61143
C         20.82149         3.48517         0.77906
C         22.03055         1.38743         0.48384
C         22.07412         4.13178         1.28848
C         20.92285         6.35885         1.31914
C         20.92245         7.75800         1.89668
C         22.07873         5.64739         1.28773
C         22.16722         8.52976         1.56432
C         20.88815        10.65501         1.58952
C         20.87379        12.05961         1.56340
C         22.12919         9.91507         1.55768
C         22.15555        12.79715         1.55823
C         20.87074        14.98897         1.34390
C         20.88365        16.37820         1.20534
C         22.16483        14.28608         1.51069
C         22.15042        17.15446         1.50086
C         20.92342        19.22020         0.76059
C         22.15934        18.58182         0.99990
C         23.26578         2.09364         0.41369
C         23.30734         3.49031         0.71517
C         24.46081         1.42864         0.04576
C         24.51266         4.21140         0.61810
C         23.40367         6.29123         1.66938
C         23.40498         7.79808         1.48116
C         24.59666         5.61209         0.99918
C         24.61601         8.46289         1.36295
C         23.42835        10.66830         1.67955
C         23.35118        12.06488         1.16015
C         24.65632         9.89194         1.28603
C         24.56446        12.78063         0.79979
C         23.33085        14.96754         0.81002
C         23.41750        16.42937         1.12139
C         24.63884        14.24482         0.95678
C         24.61490        17.09502         1.07725
C         23.38385        19.24510         0.91411
C         24.63764        18.55764         1.04868
C         25.66913         2.13739        -0.11469
C         25.66569         3.54347         0.11798
C         26.89846         1.43913        -0.39782
C         26.86720         4.32073        -0.17625
C         25.79993         6.29977         0.87987
C         25.90829         7.68859         1.46761
C         26.97780         5.68898         0.34421
C         27.11217         8.45417         0.98020
C         25.85130        10.56360         1.08772
C         25.86463        12.00807         0.78219
C         27.10393         9.86208         0.97567
C         27.11523        12.75875         0.93670
C         25.83944        14.90426         1.05785
C         25.87983        16.36697         1.08536
C         27.10488        14.16840         1.05368
C         27.07354        17.04571         1.19746
C         25.86042        19.21118         1.00564
C         27.11109        18.50095         1.13315
C         28.12763         2.08299        -0.48495
C         28.15263         3.55858        -0.50558
C         29.37817         1.39954        -0.57987
C         29.43790         4.25557        -0.33976
C         28.22589         6.35338         0.30167
C         28.28268         7.76488         0.60974
C         29.43812         5.67623        -0.06773
C         29.50255         8.48700         0.46315
C         28.31460        10.59980         0.81321
C         28.32864        12.03619         0.89698
C         29.53324         9.90178         0.62899
C         29.55876        12.74732         0.82328
C         28.32968        14.85943         1.13166
C         28.34192        16.30035         1.56223
C         29.55064        14.17475         0.92559
C         29.59866        17.03356         1.18684
C         28.31130        19.17896         1.19288
C         29.62025        18.50343         1.50008
C         30.59464         2.09058        -0.64317
C         30.60506         3.53087        -0.52110
C         31.85518         1.39885        -0.79713
C         31.89925         4.24739        -0.80563
C         30.67348         6.37307        -0.03594
C         30.71570         7.78328         0.21193
C         31.90291         5.68488        -0.33725
C         31.94424         8.49490         0.24048
C         30.76932        10.62122         0.53530
C         30.78077        12.03995         0.63117
C         31.98903         9.90335         0.35915
C         32.00599        12.76130         0.43791
C         30.77341        14.90341         0.75699
C         30.76310        16.34749         0.84180
C         31.98594        14.21828         0.49202
C         31.97119        17.06640         0.52113
C         30.81759        19.20488         0.93815
C         31.96103        18.52502         0.55897
C         33.08273         2.03663        -0.69652
C         33.10464         3.48251        -0.24835
C         34.33049         1.38340        -0.92674
C         34.38683         4.19238        -0.60851
C         33.10792         6.33601        -0.26103
C         33.19016         7.72914         0.18920
C         34.33851         5.64951        -0.70425
C         34.51010         8.50426         0.07009
C         33.22629        10.63421         0.17770
C         33.18152        12.06339         0.13663
C         34.45183         9.96028        -0.01776
C         34.37389        12.82420        -0.38951
C         33.17494        14.95300         0.26278
C         33.14383        16.36249         0.20586
C         34.49053        14.20005         0.27121
C         34.30537        17.10092        -0.41685
C         33.18640        19.22592         0.29409
C         34.36785        18.56552        -0.04749
C         35.55444         2.06123        -0.93644
C         35.57680         3.52146        -0.78609
C         36.77260         1.40170        -1.28215
C         36.83148         4.24286        -0.84712
C         35.65451         6.40758        -0.78052
C         35.71707         7.82190        -0.40545
C         36.89591         5.62432        -0.76739
C         36.93396         8.51243        -0.47411
C         35.68873        10.67191        -0.26285
C         35.67241        12.06190        -0.31783
C         36.93462         9.94083        -0.39316
C         36.91051        12.80017        -0.72762
C         35.67690        14.98009        -0.24371
C         35.63456        16.38382        -0.31218
C         36.90198        14.28910        -0.42623
C         36.81784        17.12231        -0.53476
C         35.58386        19.25019        -0.21683
C         36.80210        18.56992        -0.50763
C         37.99656         2.06241        -1.31494
C         38.10311         3.44450        -0.71916
C         39.17444         1.44954        -1.81455
C         39.31986         4.23115        -1.14154
C         38.15362         6.35435        -0.71889
C         38.16655         7.76932        -0.64327
C         39.36033         5.61632        -0.91831
C         39.41736         8.50057        -0.68868
C         38.18598        10.65127        -0.44594
C         38.17980        12.06062        -0.39550
C         39.41620         9.91654        -0.53916
C         39.43242        12.81359        -0.31363
C         38.07944        15.01265        -0.64124
C         38.06055        16.43787        -0.71626
C         39.38859        14.33656        -0.52729
C         39.24886        17.15643        -0.99710
C         38.00974        19.26103        -0.67144
C         39.23280        18.58084        -0.93752
C         40.35511         2.16330        -1.97615
C         40.44345         3.54582        -1.67433
C         41.60547         4.32376        -2.05446
C         40.70549         6.29870        -0.83164
C         40.63704         7.80532        -0.92155
C         41.71544         5.63553        -1.73813
C         41.83569         8.55052        -1.12678
C         40.73799        10.62665        -0.31230
C         40.70565        12.12039        -0.57643
C         41.88851         9.90196        -0.94653
C         41.80941        12.86177        -0.88344
C         40.59769        15.00075        -1.03210
C         40.45996        16.43014        -1.54501
C         41.75148        14.27945        -1.13999
C         41.71509        17.24709        -1.43401
C         40.44794        19.29812        -1.09190
C         41.66824        18.60904        -1.27299
O         34.82294         6.18866        -1.99381
O         19.61208         5.26424        -0.44131
O         39.51577        13.75841         0.81935
O         34.05304         7.93069         1.36692
O         27.33975         4.15859        -1.56805
O         17.63786         8.11645         3.01399
O         22.40720        13.68172         2.81020
O         12.76379         3.60239         2.78233
O         25.17279        12.30448        -0.49318
O          6.19107        15.53788         0.60459
O         15.03963        16.72813        -1.64370
H         14.34898        17.23565        -2.12268
O         36.86774        12.78493        -2.22265
H         35.95813        13.09582        -2.46135
O          9.28230         8.80792         2.44637
H         10.00598         9.35682         2.83639
O         34.11820        13.07738        -1.81955
H         33.79728        12.24063        -2.21834
O         14.53315        12.48347        -0.88333
H         15.27325        12.90729        -1.36781
O         34.77263        13.92517         1.67619
H         34.93369        14.77737         2.13222
O         32.97849         3.50135         1.20052
H         33.71223         2.97173         1.57676
O         11.95618         6.00456         3.17095
H         12.39133         5.25554         3.64426
O         22.09436         3.79809         2.73650
H         22.79510         4.36850         3.14300
O         13.52501        12.50349         2.63983
H         12.77894        12.02549         3.07063
O          4.38501        17.41578         0.52989
H          4.70567        16.68354         1.10674
O         23.60865        10.85539         3.15393
H         23.06357        11.62812         3.42801
O         26.12720         7.48935         2.90689
H         25.33716         7.00271         3.24897
O         40.95947        10.51534         1.14917
H         41.03248         9.55869         1.35757
O          8.86924        11.82001        -2.07910
H          9.73259        11.38179        -2.23498
O         13.38315        15.33997         2.24698
H         12.47862        15.68198         2.40961
O         23.56186         6.09404         3.12773
H         22.79538         6.57013         3.54013
O         40.19215        16.27259        -2.99471
H         40.12418        17.17550        -3.37259
O         32.05368         4.24065        -2.25091
H         31.27844         4.69172        -2.64543
O         21.01595         7.51330         3.36274
H         20.76743         8.34698         3.81854
O         33.99969        17.08660        -1.85858
H         34.69610        17.61144        -2.30762
O         28.34441        16.25762         3.04074
H         28.66363        17.14731         3.34381
O         38.27959         3.21781         0.73261
H         38.39597         4.09830         1.15042
O         22.18026        17.25186         2.96912
H         22.98793        17.75179         3.21427
O         11.80812        10.22413         2.81628
H         12.38892         9.61866         3.32802
O          7.40646        12.99668         1.07883
H          6.82689        13.76644         1.27488
O          7.48200        14.02614        -2.47768
H          8.12004        13.30972        -2.71623
O         22.96428        14.87129        -0.61356
H         23.74972        15.12041        -1.14546
O         41.18767         6.03572         0.55286
H         41.30182         5.06394         0.63356
O         29.76147        18.59559         3.00597
H         30.69049        18.35659         3.21695
H          0.53693         1.40103        -1.63723
H          0.51122         3.85478        -1.81540
H          2.61539         0.19443        -0.96775
H          0.53963         5.74455        -2.01262
H          0.55637         8.16045        -2.20800
H          0.56758        10.03936        -2.36032
H          0.57195        12.45729        -2.50032
H          0.62700        14.36205        -2.71907
H          0.69684        16.81530        -2.85178
H          1.83417        18.94645        -2.52453
H          4.98121         0.24455        -0.32636
H          3.92107        20.22093        -2.15498
H          7.35731         0.27202         0.24724
H          6.36184        20.15111        -1.83381
H          9.76601         0.28513         0.65216
H          8.78982        20.19182        -1.37052
H         12.17752         0.29881         0.75417
H         11.22738        20.23195        -0.96182
H         14.64883         0.32383         0.57584
H         13.63547        20.29040        -0.42835
H         17.06434         0.32861         0.53324
H         16.08407        20.29834         0.03805
H         19.52085         0.32605         0.36861
H         18.50424        20.27920         0.31954
H         22.02028         0.30237         0.30522
H         20.91687        20.29563         0.52302
H         24.44079         0.34297        -0.13164
H         23.39914        20.32041         0.67721
H         26.86273         0.34054        -0.45320
H         25.88869        20.30905         0.93413
H         29.37787         0.29954        -0.61261
H         28.31193        20.27746         1.11881
H         31.82591         0.31910        -1.01388
H         30.83819        20.30402         0.99299
H         34.32174         0.30689        -1.16061
H         33.20506        20.31690         0.44192
H         36.72548         0.34536        -1.59128
H         35.60920        20.34159        -0.07557
H         39.12552         0.40221        -2.14834
H         38.01672        20.35921        -0.60713
H         41.23223         1.66400        -2.41367
H         42.39192         3.82756        -2.64357
H         42.61269         6.18930        -2.04820
H         42.74803         8.02389        -1.44058
H         42.84439        10.42484        -1.08607
H         42.78552        12.37603        -1.02154
H         42.67264        14.75674        -1.50293
H         42.68317        16.75860        -1.61182
H         40.44349        20.39358        -1.00883
H         42.60433        19.18683        -1.28608
