         276
 CSIRO Nanostructure Databank - Neutral Graphene Oxide Data Set
C         -7.79107         0.57921        -3.76267
C         -7.99274         1.41855        -2.60864
C         -8.29524         0.77977        -1.25846
C         -7.50084         1.56117        -0.19542
C         -6.46567         0.86717         0.60848
C         -5.25003         1.53748         1.21650
C         -3.85796         0.78413         1.01332
C         -2.64532         1.60307         1.36764
C         -1.33871         0.91800         1.56049
C         -0.00472         1.70711         1.40269
C          1.19806         0.94113         0.70007
C          1.76638         1.65654        -0.58949
C          3.02360         1.23089        -1.46450
C          4.43782         1.62303        -1.10018
C          5.70515         0.88195        -1.62800
C          6.90189         1.23306        -0.71645
C          8.19932         0.51744        -1.05035
C          9.39090         1.01146        -0.27914
C         10.51864         0.08132        -0.21409
C         -8.00645         2.80485        -2.70333
C         -7.87760         3.67954        -1.57445
C         -7.45037         3.03641        -0.29705
C         -6.47678         3.77999         0.57945
C         -5.28555         3.04295         1.19673
C         -3.97193         3.77134         1.06815
C         -2.72519         3.09178         1.67537
C         -1.52375         3.74908         1.02068
C         -0.28802         3.01074         0.68650
C          0.83022         3.93576         0.18652
C          2.03357         3.13889        -0.29878
C          3.40989         3.69835        -0.18408
C          4.58720         2.85178        -0.52327
C          5.89033         3.54143        -0.45532
C          7.11962         2.72320        -0.59311
C          8.29846         3.23328         0.21957
C          9.49881         2.31490         0.10536
C         -7.87579         5.07999        -1.69105
C         -7.24283         5.91830        -0.73805
C         -6.41634         5.24153         0.29974
C         -5.23854         5.98738         0.75964
C         -3.95140         5.27407         0.82109
C         -2.63876         6.05343         0.77465
C         -1.40265         5.24355         0.88086
C         -0.10906         5.93268         1.25102
C          1.12361         5.02254         1.23436
C          2.43144         5.76732         0.95781
C          3.66257         4.88342         0.74892
C          4.90645         5.66215         0.35822
C          6.02179         4.93374         0.02634
C          7.35767         5.52365        -0.11719
C          8.45999         4.72483        -0.04313
C         -7.17212         7.33604        -0.81670
C         -6.32537         8.08439         0.03343
C         -5.43909         7.34407         0.87737
C         -3.50316         8.40199         0.93646
C         -2.48342         7.53774         0.76812
C         -1.15950         8.14761         0.36404
C         -0.01684         7.39901         1.01889
C          1.20007         7.99868         0.35952
C          2.47718         7.21541         0.59366
C          3.77183         7.83060         0.20422
C          4.93305         7.11489         0.31292
C          6.29658         7.77360         0.38460
C          7.39782         7.01571        -0.40552
C         -6.12370         9.54734         0.00429
C         -4.97305        10.25751         0.19316
C         -3.56440         9.67630         0.14539
C         -2.29827        10.41294         0.54498
C         -1.12901         9.66014         0.63660
C          0.16002        10.23768         0.81638
C          1.35614         9.48522         0.61729
C          2.60776        10.05239         0.45904
C          3.72956         9.28189        -0.21441
C          5.08809         9.92924        -0.11986
C          6.22684         9.24794         0.06283
C         -7.89043        -0.77360        -3.70413
C         -8.46433        -1.46848        -2.48561
C         -8.09532        -0.74654        -1.19689
C         -7.29134        -1.41062        -0.11215
C         -6.65195        -0.45478         0.83526
C         -4.81706        -1.46343         1.68082
C         -3.72885        -0.68615         1.49797
C         -2.42472        -1.48522         1.40334
C         -1.23367        -0.57545         1.74227
C          0.20722        -1.20449         1.86165
C          1.30828        -0.53795         0.99553
C          2.29203        -1.40326         0.28580
C          3.59459        -0.77746        -0.10458
C          4.37458        -1.37060        -1.26034
C          5.57349        -0.66201        -1.80052
C          6.85089        -1.42838        -2.29498
C          8.12396        -0.90192        -1.52880
C          8.98590        -1.83219        -0.65474
C         10.35856        -1.24042        -0.43714
C         -8.13912        -2.93111        -2.40893
C         -7.34043        -3.51604        -1.47381
C         -6.50286        -2.69904        -0.50383
C         -5.81538        -3.57512         0.59695
C         -4.87355        -2.92803         1.58909
C         -3.68238        -3.65047         2.14350
C         -2.43176        -2.75991         2.37266
C         -1.10784        -3.55591         2.17006
C          0.12147        -2.77551         1.74846
C          1.06247        -3.50167         0.80663
C          2.24000        -2.76328         0.29088
C          3.21185        -3.54957        -0.52791
C          4.24206        -2.85353        -1.34798
C          5.35436        -3.58471        -2.04706
C          6.74044        -2.98387        -2.26330
C          7.83559        -3.79287        -1.59078
C          8.98218        -3.26770        -1.11373
C         -7.20316        -4.94849        -1.49402
C         -6.36791        -5.66832        -0.67400
C         -5.52600        -5.02609         0.33063
C         -4.62537        -5.76747         1.06870
C         -3.65739        -5.15285         2.03632
C         -2.35156        -5.88242         2.50698
C         -1.08791        -5.11085         2.07761
C          0.07840        -5.82566         1.46096
C          1.05264        -5.02483         0.64328
C          2.25801        -5.73612         0.20001
C          3.49583        -4.98765        -0.16387
C          4.20376        -5.75426        -1.30314
C          5.23552        -5.06511        -2.15502
C          6.52381        -5.86071        -2.63567
C          7.69478        -4.83714        -2.67145
C         -6.25094        -7.08772        -0.88904
C         -5.42492        -7.86920        -0.14300
C         -4.66575        -7.30066         1.04496
C         -3.25905        -7.94119         1.02751
C         -2.34580        -7.45707         2.21007
C         -0.98995        -8.03027         1.77183
C          0.04389        -7.30523         1.28463
C          1.25125        -7.99562         0.67142
C          2.49971        -7.10023         0.78318
C          3.72022        -7.81744         0.14929
C          4.29108        -7.22242        -1.10570
C          5.46273        -8.04767        -1.91095
C          6.63804        -7.11636        -1.83791
C         -5.18501        -9.23637        -0.58122
C         -4.17758        -9.99257        -0.10310
C         -3.36547        -9.51190         1.07368
C         -2.00454       -10.16982         1.17264
C         -0.92682        -9.49071         1.61082
C          0.41245       -10.11350         1.94235
C          1.54045        -9.37719         1.25722
C          2.75467        -9.95276         1.11360
C          3.86326        -9.27413         0.39441
C          4.83526       -10.03048        -0.43420
C          5.64162        -9.43670        -1.32775
O          8.71693         0.13161        -2.36727
O         -0.75872         7.99586        -1.05934
O          0.36205        -4.14373        -0.31950
O          6.69514         3.47539        -1.73183
O         -6.19279        -3.40960         1.98503
O          4.65303        -8.24350         1.17788
O         -8.44856         2.38823         0.58255
O         -4.18029        -4.46758         3.23176
O         -6.05188        -0.92707         1.98521
O          2.61697         6.76480         2.01214
O         -1.37899         3.00501        -0.26693
O         -4.59911         8.06997         1.72360
O          2.06760         0.48995         1.73157
O         -0.13099         6.90460         2.36131
O         -2.82789        -8.07567         3.36865
O          4.39955        -0.86815        -2.63432
O          0.06149        -5.54606         2.88344
O         -8.73533        -1.41590        -0.05589
O          4.14715         0.02167         0.63363
O         -1.46331         0.25511         2.90029
O          2.63758         3.90353        -1.39987
O          4.79138        -4.23633        -3.24234
O         -5.45667         2.30446         2.44040
O         -7.16576         4.69636         1.47783
O          2.95961        -3.27118        -1.93243
O         -0.04615        -3.23282         3.11145
O          3.28667        -6.68640        -1.97157
O         -3.88671         4.26196        -0.28495
O          2.75558         0.85382        -2.59106
O          7.20243        -3.70297        -3.51347
O          0.76028         7.87161        -1.05898
O         -1.88752         5.64585        -0.43282
O          6.58833         0.73353         0.60248
H          6.99810         1.32388         1.27682
O          6.71123         7.66332         1.77766
H          6.02581         8.09094         2.33271
O          0.42252         2.03937         2.71595
H          0.65343         1.19425         3.17268
O         -9.90686        -1.37035        -2.64422
H        -10.21354        -0.59020        -2.12434
O          8.28324        -1.80078         0.63007
H          8.79169        -2.34010         1.27113
O         -5.32891        -7.66406         2.26606
H         -4.63574        -7.71799         2.97585
O         -2.60628        -7.54838        -0.19539
H         -3.09017        -7.95563        -0.94615
O          6.29523        -6.17336        -4.02161
H          6.01993        -5.32455        -4.44552
O          2.82101        -6.88743         2.18097
H          3.52965        -7.54315         2.41046
O         -2.26690        -1.99276         0.06220
H         -2.64943        -1.33118        -0.55827
O         -2.75597         3.31807         3.09246
H         -3.50759         2.80766         3.46952
O          0.47841       -11.49655         1.61836
H         -0.18822       -11.97028         2.15549
O          7.85419         3.07498         1.61598
H          8.54055         3.46019         2.20107
O         -2.31700        -5.75880         3.93251
H         -2.57908        -6.65261         4.28403
O         -3.41687         9.30953        -1.26712
H         -2.50596         8.97117        -1.42477
O          0.64699        -0.90693         3.18918
H          0.13033        -1.47736         3.80671
O          5.97811         1.35820        -2.95014
H          5.22171         1.08791        -3.51627
O          4.97391        -8.27956        -3.20862
H          5.19902        -7.50498        -3.78404
O          1.25127         4.43025         2.52490
H          1.34895         5.16202         3.17167
O         -9.71242         0.99116        -1.06081
H         -9.80233         1.61429        -0.29464
O          0.65218         1.56599        -1.49279
H          1.03329         1.32501        -2.37759
O          7.00580        -1.11362        -3.67353
H          7.32457        -0.18226        -3.73131
O          0.36698         4.66974        -0.95059
H         -0.23973         4.09067        -1.46562
O          1.00694        -8.17297        -0.74258
H          0.13188        -8.60110        -0.84976
O          3.96298         4.26857         2.02535
H          3.91827         4.97096         2.70894
O          4.41788        -4.95648         0.96770
H          4.03055        -5.50898         1.69452
O         -4.08394        -9.96746         2.23336
H         -3.65612        -9.50823         3.01065
O          3.37086         9.30133        -1.63778
H          2.48453         8.88367        -1.73740
O         -5.38585        -2.14990        -1.27239
H         -4.98077        -2.87596        -1.79267
O         -3.75897         0.64082        -0.46143
H         -3.28289         1.42534        -0.81911
O         -2.47726        -2.26736         3.70666
H         -2.66846        -3.03143         4.29497
O          7.23206         7.21303        -1.81107
H          6.52182         6.62139        -2.13475
H         11.22310        -1.92043        -0.38714
H         11.51375         0.48768         0.02420
H         10.44187         2.65674         0.56435
H          9.46899         5.15524        -0.13711
H          8.39188         7.44359        -0.12197
H          7.18456         9.79213         0.07264
H          5.12800        11.01368        -0.30893
H          2.71599        11.14429         0.56007
H          0.23930        11.32509         0.96740
H         -2.26947        11.50479         0.68459
H         -5.05511        11.35620         0.15766
H         -7.03843        10.13944        -0.17517
H         -7.75373         7.85243        -1.59485
H         -8.30259         5.53650        -2.59794
H         -7.99981         3.26333        -3.70533
H         -7.50510         1.06918        -4.70683
H         -7.71802        -1.37014        -4.61241
H         -8.68269        -3.58090        -3.11229
H         -7.80407        -5.49381        -2.23755
H         -6.80539        -7.52634        -1.73340
H         -5.81525        -9.61037        -1.40396
H         -4.01031       -11.01039        -0.48652
H         -1.95700       -11.26208         1.03543
H          0.55764        -9.99035         3.06084
H          2.91582       -10.98101         1.47342
H          4.97487       -11.09650        -0.19592
H          6.38719       -10.05216        -1.85489
H          7.09415        -7.00981        -0.83740
H          8.63133        -5.28499        -3.07602
H          9.88740        -3.88564        -1.00236
