         252
 CSIRO Nanostructure Databank - Neutral Graphene Oxide Data Set
C         30.69647        31.45824        -0.20628
C         30.63067        32.69002        -0.27691
C         30.60181        35.79380        -1.05696
C         30.77712        36.90368        -1.58865
C         31.25152        39.86042        -3.05523
C         31.21258        41.10110        -3.19444
C         32.94663        28.90315         1.21935
C         31.96427        29.35629         0.62305
C         32.89094        31.63325         0.89228
C         31.54137        30.78749         0.84957
C         32.88426        33.02168         0.57622
C         31.59508        33.68664         0.17469
C         32.88773        35.86835        -0.18418
C         31.58858        35.13820        -0.17460
C         32.90280        37.28556        -0.63584
C         31.86759        37.80949        -1.60728
C         33.44521        39.53164        -2.29392
C         32.11885        38.95275        -2.35308
C         33.42918        41.70280        -2.66344
C         32.09692        42.18034        -2.91088
C         32.94697        44.15271        -1.94926
C         31.99105        43.53479        -2.47974
C         35.60587        27.45137         2.15805
C         35.35834        28.89457         2.21936
C         34.13385        29.56872         1.73342
C         35.30957        31.73757         1.39838
C         34.12553        31.01859         1.30048
C         35.29884        33.26054         1.30512
C         34.03989        33.82755         0.66336
C         35.32600        35.95199         0.26233
C         34.04804        35.22609         0.27488
C         35.39856        37.29451        -0.09398
C         34.19522        38.04870        -0.48942
C         35.49977        40.13349        -1.05427
C         34.40554        39.24979        -1.34334
C         35.48117        41.52645        -1.26227
C         34.39946        42.30770        -1.82859
C         35.22232        44.46439        -0.84949
C         34.22482        43.72372        -1.47900
C         35.39684        45.86719        -0.71520
C         38.05037        27.32878         1.95455
C         36.62928        26.80568         1.92716
C         37.81110        28.80360         1.50398
C         36.73352        29.62277         2.25427
C         37.84586        31.74143         1.17952
C         36.60935        31.09583         1.75758
C         37.77445        33.03039         0.37966
C         36.56198        33.87489         0.71787
C         37.85958        35.86271        -0.06576
C         36.57168        35.20179         0.40487
C         37.84180        37.37200         0.04646
C         36.64468        38.02962        -0.12621
C         37.94591        40.12108        -0.58112
C         36.58787        39.55772        -0.14047
C         37.92183        41.65146        -0.54292
C         36.56176        42.29223        -0.56827
C         37.70665        44.62256        -0.07783
C         36.46008        43.77818        -0.35657
C         37.79564        46.08069        -0.61723
C         36.37362        46.58950        -0.41721
C         40.19332        24.53116         0.63988
C         39.18509        25.23826         0.99775
C         40.17069        27.31634         0.48830
C         39.04473        26.61169         1.08344
C         40.19226        28.70054         0.48759
C         38.97777        29.47607         0.83809
C         40.25379        31.60617         0.69219
C         39.06893        30.93876         0.91071
C         40.24730        33.06347         0.78875
C         39.09284        33.77081         0.57600
C         40.23622        35.92622         0.81632
C         39.10791        35.22053         0.51553
C         40.15326        37.40101         1.14736
C         39.06142        38.11691         0.35074
C         40.20964        40.28506         0.71866
C         39.07448        39.47668         0.20615
C         40.25541        41.76651         0.53821
C         39.08052        42.45355        -0.07021
C         40.32063        44.62671         0.10266
C         39.01122        43.93125         0.18434
C         40.35631        46.11802        -0.15696
C         38.94556        46.78845         0.04750
C         40.16735        48.80990         0.78638
C         39.15479        48.05122         0.44013
C         42.73027        24.50204         0.09828
C         41.42874        24.97911         0.23851
C         42.67318        27.29998         0.21338
C         41.34913        26.56791        -0.15888
C         42.66075        28.73812        -0.28542
C         41.35732        29.47123        -0.02354
C         42.66174        31.57680         0.09452
C         41.45474        30.91230         0.27042
C         42.76298        32.99072         0.54979
C         41.54274        33.74668         0.99028
C         42.73954        35.98833         0.59218
C         41.54343        35.26103         1.22154
C         42.75150        37.36031         0.61119
C         41.52570        38.09452         1.05169
C         42.73739        40.26345         0.37073
C         41.51772        39.57517         0.88339
C         42.78485        41.75466         0.28301
C         41.53146        42.51157         0.47903
C         42.84633        44.59681         0.27974
C         41.51594        43.90433         0.29338
C         42.84661        46.09805         0.37091
C         41.48316        46.72333         0.73947
C         42.75788        48.75863         1.08604
C         41.43385        48.32036         0.82416
C         43.75874        25.20944        -0.16872
C         45.14344        27.32769        -0.41864
C         43.96901        26.58274        -0.20788
C         45.16756        28.78128        -0.48513
C         43.92710        29.50297        -0.33916
C         45.13376        31.66435        -0.39337
C         43.88510        30.90797        -0.28584
C         45.21749        32.99580        -0.09366
C         43.95447        33.75617         0.07939
C         45.23233        35.94730         0.14820
C         43.94772        35.24908         0.13928
C         45.18826        37.42076        -0.17732
C         43.96337        38.12710         0.34996
C         45.23427        40.25195         0.54232
C         44.00101        39.50384         0.43931
C         45.25165        41.62064         0.81791
C         44.07316        42.43500         0.57647
C         45.08602        44.47868         1.55274
C         44.06230        43.81183         0.66507
C         45.29135        45.99572         1.26570
C         44.15366        46.81082         0.75769
C         43.87804        48.21912         1.07550
C         47.48532        27.42045        -0.93953
C         46.43818        26.79974        -0.64207
C         47.56960        28.82217        -1.12981
C         46.36992        29.48967        -0.81019
C         47.59714        31.75607        -1.07905
C         46.27926        30.97812        -1.10559
C         47.64957        33.08216        -0.77621
C         46.56025        33.67411         0.12757
C         47.75157        35.99444        -0.13538
C         46.49199        35.21502         0.14379
C         47.70857        37.48000        -0.51192
C         46.47563        38.18933         0.02416
C         47.71550        40.34991         0.19798
C         46.48114        39.52322         0.34712
C         47.80649        41.70685         0.81844
C         46.49728        42.18171         1.50764
C         47.34407        44.29394         2.52709
C         46.39141        43.69379         1.74794
C         47.16413        45.71141         2.79170
C         46.38228        46.42582         2.14768
C         50.08341        28.99290        -1.69210
C         48.72592        29.52331        -1.69974
C         50.09449        31.77339        -1.65605
C         48.77609        31.07091        -1.67972
C         50.09068        33.18370        -1.49050
C         48.77847        33.93350        -1.34495
C         50.11885        35.97640        -0.70801
C         48.95461        35.28234        -0.67087
C         50.19325        37.30571        -0.01095
C         48.98470        38.12419        -0.04648
C         50.29434        40.29848         0.28976
C         49.02194        39.57500        -0.02871
C         50.21519        41.81655         0.02834
C         49.04296        42.33916         0.92363
C         50.49558        44.12383         1.74289
C         49.32716        43.39671         1.89168
C         51.12958        29.62534        -1.90829
C         52.48043        31.84544        -1.78922
C         51.33118        31.04057        -1.79416
C         52.40130        33.10309        -1.67532
C         51.29241        33.93573        -1.52587
C         52.53140        36.08949        -0.97688
C         51.29025        35.43444        -1.54379
C         52.55287        37.23098        -0.50009
C         51.55508        38.01077         0.21757
C         52.72106        40.33979        -0.03813
C         51.58756        39.49296         0.38475
C         52.70630        41.57536         0.18226
C         51.66279        42.51344         0.30901
C         51.46052        43.63457         1.02878
O         47.42061        35.75065         1.25004
O         31.12677        34.68128         1.11721
O         45.27349        46.45902        -0.08659
O         42.64230        40.90950        -0.94553
O         36.16428        42.84116         0.72805
O         43.65684        34.50026        -1.16469
O         42.98312        45.46546        -0.92810
O         41.76018        38.98335         2.19896
O         41.76721        29.06433        -1.37842
O         37.48399        31.94504         2.57367
O         42.43089        33.09678         1.97653
O         33.13556        38.21504         0.50691
O         48.35791        34.22158        -2.76399
O         38.88099        42.19733        -1.51253
O         48.26656        40.19175        -1.15433
O         48.46789        43.61483         2.96344
O         50.88130        39.95258         1.57004
O         48.46092        30.30827        -2.89925
O         37.76246        28.99357         0.08275
O         38.16919        44.44213         1.28501
O         33.77611        40.48406        -3.27748
O         39.90882        41.17382         1.85053
O         50.93969        37.28001         1.28378
O         34.41189        29.41216         3.16918
O         51.08697        35.88348        -2.88046
H         51.73072        35.43665        -3.46812
O         40.63366        46.37277        -1.55018
H         41.51304        45.96057        -1.76289
O         41.68717        35.47891         2.64564
H         42.15062        34.69376         3.01811
O         30.92011        30.90417         2.09292
H         30.09529        30.37783         2.10341
O         39.70828        37.45502         2.51950
H         40.29236        38.09231         2.99489
O         41.25655        46.28552         2.08473
H         40.37292        46.59244         2.38021
O         44.96724        37.39757        -1.63912
H         45.84922        37.23531        -2.06954
O         46.99183        34.72100        -2.68376
H         46.50261        34.10610        -3.28438
O         46.93533        33.25053         1.46764
H         47.40689        34.00832         1.89238
O         46.49698        41.53466         2.81326
H         47.26106        41.88929         3.32197
O         36.35022        40.00724         1.20362
H         35.48637        39.66189         1.51171
O         45.87959        31.06356        -2.51282
H         46.62231        30.68781        -3.04843
O         38.55415        27.31647         3.27320
H         38.01068        27.93301         3.82077
O         44.42204        44.49696         2.85456
H         44.39927        43.58268         3.20974
O         37.14595        29.64066         3.62937
H         36.45133        30.09880         4.15099
O         35.26912        33.73939         2.69361
H         34.43819        33.42062         3.10603
O         38.02198        46.00840        -2.01495
H         38.91040        46.38937        -2.22335
O         37.65244        32.69677        -1.02544
H         37.70573        33.54432        -1.52982
O         38.11572        39.73552        -1.96407
H         38.72641        40.39015        -2.37512
O         41.20742        26.58377        -1.56691
H         40.26893        26.44790        -1.80884
O         49.90900        42.04257        -1.33184
H         49.61383        42.96658        -1.45878
O         47.63805        37.55550        -1.97307
H         47.80418        38.50014        -2.20948
O         42.73605        27.40680         1.65129
H         42.82414        26.50714         2.03282
O         37.93316        35.55404        -1.50916
H         38.59829        36.14914        -1.91762
