         280
 CSIRO Nanostructure Databank - Neutral Graphene Oxide Data Set
C         30.55661        31.87467        -2.13334
C         30.57863        33.10039        -1.94823
C         30.38222        36.29276        -0.96440
C         30.38018        37.50528        -0.73389
C         30.38493        40.76897        -0.04183
C         30.35311        41.99889        -0.02051
C         32.67310        28.84578        -1.33413
C         31.73911        29.50127        -1.80592
C         32.79236        31.60573        -1.16764
C         31.69059        30.95267        -2.02569
C         32.61408        33.02335        -0.62085
C         31.40731        33.86896        -1.00139
C         32.68542        36.02595        -0.23910
C         31.52171        35.36290        -0.96506
C         32.59252        37.46303         0.29777
C         31.29594        38.29109         0.10465
C         32.71126        40.47875         0.88347
C         31.32032        39.74736         0.40895
C         32.73426        42.03001         0.63572
C         31.45391        42.87368         0.39175
C         32.87635        44.78186         0.03712
C         31.78446        44.21320        -0.09752
C         35.27624        27.03248        -0.10153
C         35.11429        28.45351        -0.48213
C         33.83744        29.24066        -0.52556
C         35.20676        31.47489        -0.44418
C         33.87290        30.76206        -0.48336
C         35.18025        32.99780        -0.31007
C         33.86022        33.69873        -0.06381
C         35.14317        35.92798         0.45569
C         33.84608        35.17485         0.23075
C         35.17078        37.42893         0.63819
C         33.87093        38.21912         0.56818
C         35.29107        40.40327         0.56872
C         33.91741        39.73194         0.22221
C         35.36217        41.89658         0.64746
C         34.08896        42.66720         0.31811
C         35.42409        44.85629         0.42926
C         34.20879        44.16031         0.01183
C         35.63535        46.21386         0.55718
C         37.71380        26.84109         0.13589
C         36.33286        26.38775        -0.09748
C         37.64751        28.39086         0.28791
C         36.43841        29.16240        -0.22392
C         37.76234        31.43371         0.13380
C         36.49287        30.69485        -0.27548
C         37.75247        32.94298         0.21537
C         36.47074        33.72889        -0.06279
C         37.68244        35.93323         0.62579
C         36.44972        35.21710         0.21027
C         37.59886        37.33608         1.25224
C         36.51453        38.18091         0.51206
C         37.74766        40.31770         1.44854
C         36.45332        39.59558         1.10486
C         37.82314        41.86000         1.70185
C         36.52231        42.63280         1.29658
C         37.92092        44.83687         1.01787
C         36.56788        44.12780         1.09548
C         37.94079        46.29311         0.48761
C         36.66163        46.94314         0.79869
C         40.30373        24.06943        -0.39735
C         39.24878        24.76092        -0.53319
C         40.27798        27.01444        -0.35001
C         39.03444        26.16893        -0.15406
C         40.14824        28.54461        -0.29940
C         38.93974        29.13486         0.43214
C         40.21857        31.38196         0.94334
C         38.93939        30.64020         0.66467
C         40.15739        32.88575         1.22239
C         38.85460        33.61866         1.00925
C         40.14095        35.84967         1.18065
C         38.85281        35.12209         1.08010
C         40.10743        37.25855         0.66341
C         38.95965        38.05405         1.21044
C         40.47560        40.16953         1.01206
C         39.07658        39.54016         1.35518
C         40.40733        41.69753         0.86241
C         39.16070        42.50342         1.18257
C         40.30220        44.60335         0.06066
C         39.17052        44.00768         0.91579
C         40.52421        46.06801         0.43974
C         39.30454        46.95107         0.36447
C         40.68955        49.04026         0.17677
C         39.66032        48.35843         0.40829
C         42.91914        24.23250        -0.43179
C         41.58807        24.27419        -0.91068
C         42.76053        27.16181        -0.49467
C         41.44927        26.55304        -0.90655
C         42.78050        28.61078        -0.07895
C         41.46337        29.36560        -0.11882
C         42.87841        31.37733         0.84139
C         41.49939        30.77237         0.43195
C         42.78660        32.90941         1.10397
C         41.47927        33.62299         1.39035
C         42.67959        35.92308         0.99880
C         41.44792        35.14289         1.31103
C         42.62004        37.20024         0.19079
C         41.30232        37.92887         0.08857
C         42.63459        40.09063        -0.36032
C         41.22693        39.45946        -0.18112
C         42.46082        41.54545        -0.80343
C         41.63494        42.35864         0.21561
C         42.68827        44.53248        -0.74921
C         41.63637        43.84482         0.08441
C         42.81075        46.05572        -0.55608
C         41.81128        46.53637         0.51609
C         43.26561        48.87044        -0.28887
C         42.05118        48.80305         0.42724
C         43.90105        24.98286        -0.64346
C         45.35713        27.19440        -0.65531
C         44.07579        26.43749        -0.76698
C         45.39554        28.67878        -0.25850
C         44.09241        29.39821        -0.03237
C         45.34670        31.63371        -0.02059
C         43.97848        30.93398        -0.20480
C         45.31615        33.07158         0.44172
C         44.01929        33.74300         0.80106
C         45.25712        35.99668         0.98434
C         44.00373        35.21672         1.15861
C         45.22461        37.32354         0.28279
C         43.88762        37.93973        -0.08101
C         45.13734        39.97640        -0.86740
C         43.81604        39.41278        -0.35571
C         45.05623        41.44802        -1.22397
C         43.77689        42.22344        -1.21408
C         45.07653        44.47281        -1.83477
C         43.80082        43.73726        -1.33673
C         45.39005        45.78904        -1.03257
C         44.26724        46.59124        -0.46349
C         44.22465        48.05086        -0.29770
C         47.79005        27.30901        -0.50254
C         46.72821        26.68522        -0.49224
C         47.99856        28.74907        -0.76150
C         46.66668        29.46212        -0.58513
C         47.94389        31.53808         0.28398
C         46.65915        30.94314        -0.25319
C         47.99122        32.99582         0.83364
C         46.61485        33.73490         0.85837
C         47.85095        36.04735         0.98281
C         46.57187        35.23326         1.02511
C         47.69193        37.59012         1.00253
C         46.48792        38.12289         0.22770
C         47.46290        40.41094         0.14463
C         46.38329        39.59354        -0.06279
C         47.46351        41.85261        -0.25986
C         46.26447        42.31307        -1.03997
C         47.66692        44.08199        -2.26929
C         46.30208        43.53509        -1.90746
C         47.56465        45.53905        -2.09976
C         46.69368        46.23917        -1.57341
C         50.44440        28.83814         0.12780
C         49.34068        29.46745        -0.73072
C         50.54154        31.64220         0.07010
C         49.24427        30.85265        -0.04092
C         50.47473        33.16722         0.12647
C         49.14648        33.86643         0.26358
C         50.40939        36.15731         0.40529
C         49.14615        35.34561         0.63923
C         50.29412        37.63487         0.65386
C         48.94068        38.30967         0.50495
C         50.01141        40.65405         0.71809
C         48.81853        39.79941         0.37475
C         50.06130        42.04741         0.13800
C         48.76379        42.70418        -0.39472
C         50.21588        43.88320        -1.95274
C         48.87956        43.20865        -1.96267
C         51.38375        29.43099         0.66689
C         52.66294        31.76251         1.25198
C         51.76876        30.84362         0.53680
C         52.72627        32.98362         1.06795
C         51.77979        33.93391         0.47097
C         52.62353        36.36838         1.32047
C         51.74371        35.41716         0.62101
C         52.55250        37.59919         1.41608
C         51.29910        38.41971         1.53081
C         52.44983        40.66858         0.68460
C         51.29743        39.91147         1.17506
C         52.52412        41.70179         0.01254
C         51.46966        42.67111        -0.26061
C         51.27237        43.55087        -1.40369
O         43.26181        37.08705        -1.11764
O         44.92909        28.97792         1.07914
O         50.80536        43.02503         0.94831
O         46.40862        42.63412         0.38166
O         48.95849        38.91998        -0.81176
O         37.35001        35.85162        -0.78414
O         33.03152        37.72883         1.64326
O         39.47880        30.75080         2.02089
O         32.88181        31.49452        -2.62365
O         39.26506        38.65735         2.50066
O         50.62125        37.11117        -0.66509
O         42.12507        35.92621         2.34933
O         42.64562        44.16206        -2.14975
O         46.05882        31.70162        -1.32733
O         44.64984        35.84421         2.30154
O         40.54073        39.66094        -1.36530
O         33.63439        34.19415         1.28555
O         36.85050        39.74417         2.46675
O         46.83013        43.45696        -3.27406
O         42.11460        47.66399         1.31465
O         46.12379        37.25125        -0.87553
O         36.14338        43.54664         2.36107
O         31.96073        42.66778         1.71871
O         40.19811        42.25701         2.19098
O         48.58073        30.65236         1.24061
O         40.33394        37.23985        -0.77168
O         44.76598        26.92792        -1.94759
O         33.49552        29.97782         0.68042
O         36.03885        28.69982        -1.56036
O         47.20801        29.16945        -1.90369
O         48.75435        35.58894         2.03667
O         38.82986        44.71534         2.14073
O         49.72168        33.64306        -1.03988
O         39.19524        33.08645         2.30541
O         30.80912        38.80359         1.36094
O         42.70185        27.56483         0.92031
O         38.48053        26.27170         1.19533
O         50.47530        40.64069         2.10852
O         39.33170        35.62453         2.36041
O         34.24872        43.16669        -1.05366
O         41.51477        25.43992        -1.77746
O         38.50412        46.53386        -0.79452
O         36.03156        31.11701        -1.58140
O         42.31746        33.13313         2.46899
O         41.40943        30.51415        -1.00034
O         44.50112        33.74713        -0.58382
O         46.49118        34.34382         2.17326
O         35.12812        36.53043         1.77379
O         44.33365        41.68239        -2.45479
O         35.79380        41.18491        -0.56311
O         45.16531        45.81382         0.37421
O         32.62563        35.93626        -1.71025
O         51.60191        31.21879        -0.84117
O         38.21781        28.63581         1.60023
O         52.24013        34.79964        -0.58174
O         45.41023        39.27511        -2.17893
O         31.47726        33.19624         0.27665
O         38.26534        32.27419        -0.96499
O         35.93580        33.56811        -1.41100
O         42.27811        43.20017         1.22081
O         44.79059        44.96840        -3.14270
H         45.23342        44.38720        -3.80327
O         37.24846        37.14922         2.61422
H         37.71387        37.83358         3.15170
O         37.86022        41.99869         3.12126
H         38.79208        41.93063         3.42453
O         39.74168        28.78249        -1.68587
H         40.09206        29.65786        -1.97931
O         44.16541        39.15040        -2.89529
H         43.89192        38.21290        -2.71602
O         48.53122        43.89910         0.32972
H         49.34388        44.12032         0.84411
O         41.62653        41.55237        -1.96862
H         42.02765        40.96540        -2.64728
O         48.40096        32.82489         2.19879
H         48.06132        33.59309         2.72074
O         49.81593        29.62554        -2.03822
H         49.73813        28.78390        -2.53165
O         32.83816        40.29188         2.27372
H         32.18055        40.85852         2.73391
O         43.56044        31.24772        -1.52519
H         44.34532        31.53370        -2.04772
O         36.84432        38.40598        -0.85949
H         37.07302        37.54765        -1.29429
O         39.83278        44.44540        -1.28997
H         40.47175        44.85243        -1.91476
O         42.26834        46.64907        -1.75842
H         42.57934        46.10615        -2.52373
O         48.89175        42.07179        -2.77735
H         48.33665        42.22726        -3.57502
O         33.73224        39.80601        -1.19496
H         34.42515        40.40716        -1.56683
O         43.27961        30.78769         2.07498
H         42.81644        31.24843         2.81237
O         50.77918        38.27500         2.84726
H         51.16722        38.96237         3.42956
O         47.49791        37.96894         2.37438
H         48.10751        37.43939         2.93596
O         41.35503        39.92560         2.11867
H         41.03417        40.44298         2.89041
