         424
 CSIRO Nanostructure Databank - Neutral Graphene Oxide Data Set
C          1.31721         3.36704         0.19645
C          0.12596         4.04252         0.37962
C          1.23350         6.20958         0.10561
C          0.07545         5.44846         0.30592
C          1.16438         7.65301        -0.08281
C         -0.01127         8.32918        -0.38493
C          1.13919        10.49587        -0.58056
C         -0.02962         9.72827        -0.56974
C          1.09174        11.95313        -0.87680
C         -0.10255        12.74481        -0.59304
C          1.15370        14.86351        -0.66766
C         -0.06637        14.11111        -0.61202
C          1.11575        16.38363        -0.77299
C         -0.09654        17.06667        -0.18529
C          1.10040        19.19174         0.10241
C         -0.10148        18.39262         0.10216
C          1.12218        20.58282         0.19034
C         -0.07651        21.37912         0.06287
C          1.13799        23.49891         0.37220
C         -0.05324        22.74607         0.09021
C          1.17429        24.88487         0.34042
C          0.05995        25.67920        -0.15898
C          1.04370        27.72509         0.85477
C          0.02308        27.01675        -0.00375
C          1.16443        29.22753         0.46423
C         -0.11360        29.99099         0.76367
C          1.10395        32.14473         0.90963
C         -0.13906        31.32377         0.91117
C          1.12540        33.54184         0.40851
C         -0.05782        34.23239         0.10284
C          1.19488        36.28268        -0.25176
C         -0.02483        35.58329        -0.23726
C          1.25895        37.69141        -0.65147
C          3.73277         3.40365        -0.29944
C          2.52800         4.08573        -0.02888
C          3.71270         6.22849        -0.17369
C          2.49697         5.52447        -0.00408
C          3.74189         7.69890        -0.01046
C          2.39269         8.45041         0.02939
C          3.63165        10.57624        -0.42802
C          2.39790         9.86941        -0.36245
C          3.65968        11.99784        -0.55602
C          2.42385        12.73526        -0.86389
C          3.63751        14.89351        -0.51689
C          2.37792        14.19668        -0.66474
C          3.60032        16.34833        -0.33997
C          2.39459        17.02140        -0.29308
C          3.58224        19.22045        -0.27919
C          2.39686        18.43496         0.26245
C          3.59077        20.64600         0.22246
C          2.38205        21.29601         0.36793
C          3.64066        23.47156         0.63866
C          2.34241        22.72686         0.86333
C          3.64512        24.87138         0.69812
C          2.39538        25.61475         0.67272
C          3.62872        27.74272         0.83329
C          2.38391        26.99536         0.80912
C          3.62817        29.12869         0.78905
C          2.37319        29.86773         1.19013
C          3.62462        32.09712         0.55006
C          2.41145        31.39619         1.00582
C          3.62330        33.47257         0.41628
C          2.37254        34.22744         0.35668
C          3.66387        36.44302         0.13688
C          2.39231        35.60757         0.05998
C          3.67952        37.38377        -1.10695
C          2.42295        38.24038        -1.04526
C          6.14185         3.41770        -0.90142
C          4.92101         4.09863        -0.60896
C          6.06140         6.28399        -0.90752
C          4.89847         5.54062        -0.51735
C          6.22783         7.71297        -0.37500
C          4.92378         8.47266        -0.38926
C          6.13975        10.61889        -0.35520
C          4.89145         9.86032        -0.40097
C          6.10711        12.03497        -0.23145
C          4.86016        12.72733        -0.39492
C          6.12600        14.87298        -0.35908
C          4.83011        14.16871        -0.43506
C          6.11522        16.36280        -0.18732
C          4.83240        17.08233        -0.11527
C          6.08447        19.20155         0.10344
C          4.86820        18.47244        -0.01862
C          6.08568        20.59955         0.26920
C          4.85099        21.32749         0.35987
C          6.11105        23.44412         0.55106
C          4.86254        22.74080         0.53593
C          6.09030        24.85763         0.68720
C          4.89139        25.58413         0.75095
C          6.10539        27.74942         0.83325
C          4.90110        27.03211         0.79503
C          6.14944        29.17095         0.61652
C          4.85484        29.83798         0.39377
C          6.14584        32.04921         0.31576
C          4.85762        31.34460         0.26086
C          6.13520        33.47007         0.27720
C          4.88315        34.17200         0.24859
C          6.13700        36.22633         0.31284
C          4.90230        35.57726         0.23720
C          6.11319        38.14258        -0.73021
C          4.93006        38.19449        -1.42050
C          8.61327         3.60000        -1.36661
C          7.28490         4.14108        -1.29655
C          8.94349         6.65017        -1.23206
C          7.08034         5.55144        -1.48584
C          8.72000         7.86388        -0.66152
C          7.40458         8.55700        -0.94206
C          8.58651        10.61309         0.00741
C          7.37369         9.94693        -0.35718
C          8.55369        12.01688         0.18820
C          7.34782        12.73673        -0.00946
C          8.57145        14.89980         0.19386
C          7.35597        14.15521         0.00149
C          8.56985        16.27863         0.32872
C          7.29122        17.04631         0.47502
C          8.61723        19.18319         0.42781
C          7.39487        18.46487        -0.08735
C          8.56620        20.59681         0.55930
C          7.34821        21.29745         0.45064
C          8.60940        23.42039         0.53924
C          7.35183        22.72895         0.53690
C          8.58257        24.88785         0.21419
C          7.38093        25.55236         0.83964
C          8.64479        27.75354         0.66265
C          7.38736        27.03972         0.94001
C          8.64033        29.22368         0.94963
C          7.33991        29.89474         0.55994
C          8.60392        32.03460         0.26910
C          7.35635        31.32472         0.36777
C          8.60514        33.44465         0.11339
C          7.37625        34.16980         0.15766
C          8.58144        36.33032        -0.23725
C          7.38518        35.59730         0.08301
C          8.57934        37.71402        -0.71645
C          7.44497        38.45036        -1.14926
C         11.06184         3.56187        -1.03337
C          9.85217         4.29243        -1.15563
C         11.09109         6.26794        -0.25192
C          9.95519         5.70779        -0.86670
C         11.02214         7.63612         0.30970
C          9.68321         8.38372         0.37122
C         11.05512        10.57128         0.32447
C          9.80637         9.88512         0.20816
C         11.07146        11.99414         0.37377
C          9.78893        12.72474         0.68156
C         11.04129        14.85272         0.26263
C          9.84215        14.18251         0.30894
C         11.03919        16.34625         0.00453
C          9.84711        16.98283         0.71766
C         11.07325        19.18215         0.67104
C          9.81324        18.48406         0.56816
C         11.08219        20.58813         0.80231
C          9.79008        21.30521         1.09258
C         11.07376        23.46113         0.67827
C          9.82136        22.76030         0.70599
C         11.07037        24.90538         0.56746
C          9.86678        25.61340         0.49329
C         11.09608        27.76617         0.47923
C          9.84492        27.04818         0.54352
C         11.08871        29.19926         0.38154
C          9.87850        29.92415         0.46274
C         11.08039        32.02634         0.04004
C          9.85686        31.32019         0.26186
C         11.06522        33.45494        -0.11725
C          9.83279        34.17117        -0.06197
C         11.05991        36.26945        -0.45264
C          9.81091        35.59392        -0.25515
C         11.06060        37.68580        -0.76668
C          9.83664        38.33074        -0.96378
C         13.52765         3.49131        -0.76629
C         12.29842         4.18786        -0.71460
C         13.55258         6.28281        -0.15066
C         12.31401         5.57131        -0.30507
C         13.57013         7.68737         0.04274
C         12.32744         8.39787         0.37912
C         13.52852        10.56742         0.24274
C         12.30640         9.87165         0.32232
C         13.53224        11.99761         0.27283
C         12.29190        12.70403         0.35297
C         13.51731        14.85570         0.37805
C         12.30077        14.14670         0.34833
C         13.52826        16.30923         0.39981
C         12.33758        17.04051         0.35390
C         13.52609        19.19853         0.64098
C         12.31023        18.47205         0.53790
C         13.52353        20.58951         0.80586
C         12.29786        21.30557         0.83476
C         13.54038        23.47864         0.75307
C         12.29916        22.76359         0.80165
C         13.53795        24.90612         0.60837
C         12.31549        25.61997         0.55787
C         13.55122        27.75729         0.31829
C         12.30978        27.04927         0.45044
C         13.55055        29.16944         0.15375
C         12.31971        29.89662         0.17313
C         13.55882        32.00523        -0.17419
C         12.31254        31.31123         0.01695
C         13.55221        33.43105        -0.34330
C         12.29453        34.15628        -0.29597
C         13.58702        36.31505        -0.35377
C         12.27441        35.56473        -0.41503
C         13.52587        37.73410        -0.87859
C         12.28205        38.37229        -0.99371
C         16.00021         3.47024        -0.64902
C         14.76452         4.15745        -0.56785
C         16.01163         6.27814        -0.26733
C         14.77748         5.57564        -0.33258
C         16.01770         7.72253        -0.15705
C         14.78744         8.42363        -0.00381
C         16.00245        10.56922         0.03472
C         14.78203         9.85412         0.11005
C         16.00474        12.01288         0.18911
C         14.76568        12.71608         0.29060
C         15.99349        14.84933         0.53519
C         14.76365        14.14192         0.40396
C         15.97640        16.29023         0.63286
C         14.79357        16.99389         0.53471
C         16.06629        19.19748         0.64220
C         14.79729        18.48111         0.26311
C         16.06303        20.61030         0.75078
C         14.79508        21.31979         1.16370
C         16.00388        23.49304         0.80255
C         14.78783        22.79307         0.83299
C         16.00825        24.92460         0.64670
C         14.77826        25.61948         0.52785
C         16.01086        27.73809         0.17494
C         14.77792        27.03912         0.34890
C         15.99441        29.13126        -0.08328
C         14.78739        29.85612        -0.06146
C         16.01856        31.99767        -0.38243
C         14.77602        31.29087        -0.23065
C         16.00421        33.42330        -0.55030
C         14.75885        34.10736        -0.58181
C         16.01626        36.27583        -0.93788
C         14.70395        35.54109        -1.04509
C         15.99146        37.70027        -1.06652
C         14.73056        38.38576        -1.14006
C         18.48624         3.45605        -0.56947
C         17.22346         4.15105        -0.49452
C         18.49683         6.30144        -0.00691
C         17.22284         5.56010        -0.31490
C         18.49742         7.70374        -0.62032
C         17.22938         8.45170        -0.25222
C         18.50092        10.57575        -0.29959
C         17.21862         9.84806        -0.18428
C         18.49684        12.04926        -0.01621
C         17.21460        12.74162         0.26127
C         18.50160        14.87188         0.47220
C         17.22756        14.14019         0.47618
C         18.51199        16.28291         0.56025
C         17.25803        17.00535         0.98619
C         18.50565        19.18410         0.68659
C         17.26509        18.48412         0.67079
C         18.51118        20.61262         0.70356
C         17.27344        21.32367         0.77202
C         18.47960        23.47003         0.84832
C         17.27473        22.77581         0.83719
C         18.48052        24.96125         1.11365
C         17.23455        25.65981         0.63045
C         18.50920        27.77277         0.30216
C         17.25082        27.02581         0.34135
C         18.51581        29.14764        -0.01164
C         17.26181        29.80441        -0.53408
C         18.47096        32.01447        -0.44749
C         17.24821        31.30581        -0.37930
C         18.46739        33.44374        -0.60884
C         17.23305        34.13578        -0.69097
C         18.46456        36.29679        -0.91648
C         17.22432        35.57883        -0.85688
C         18.44332        37.71997        -1.06438
C         17.20447        38.40163        -1.13582
C         19.68865         4.13190        -0.52496
C         20.95282         6.26028        -0.36310
C         19.75071         5.53852        -0.35521
C         20.97234         7.65311        -0.24356
C         19.78649         8.43644        -0.28592
C         20.98660        10.61310        -0.07823
C         19.77941         9.82735        -0.18861
C         20.99044        11.94341         0.18489
C         19.73735        12.67715         0.58066
C         20.92483        14.90186         0.23396
C         19.73454        14.17715         0.36091
C         20.92170        16.29238         0.25762
C         19.72706        17.00362         0.48428
C         20.93731        19.18783         0.65402
C         19.74013        18.46323         0.62181
C         20.94413        20.58272         0.71769
C         19.75023        21.32076         0.72568
C         20.92310        23.51224         0.71981
C         19.73977        22.77513         0.78199
C         20.92255        24.92561         0.64239
C         19.75751        25.66094         0.72276
C         20.93655        27.84965         0.54162
C         19.74038        27.09887         0.54127
C         20.92783        29.21109         0.28952
C         19.72643        29.88156        -0.03288
C         20.90735        32.03521        -0.47509
C         19.72020        31.31125        -0.33971
C         20.90331        33.42287        -0.66377
C         19.71194        34.15368        -0.70805
C         20.89873        36.35109        -0.92824
C         19.71011        35.60702        -0.85205
C         20.87508        37.74844        -1.06791
C         19.67297        38.43062        -1.13667
O         11.70855         7.78471         1.59685
O          1.77986        12.30395        -2.11515
O          1.83235        32.06132         2.19874
O          3.15309         8.16057         1.25559
O          8.06026         6.21573        -2.24092
O          4.72654        30.47833        -0.94011
O          7.54502        26.15496         2.15639
O         18.57463        11.58533        -1.39611
O          6.10231        37.59158         0.57498
O          6.37396        15.80584        -1.50535
O         13.94431        36.39459         1.05553
H         13.24746        36.90782         1.51495
O          3.52971        36.48695        -2.24542
H          3.39029        37.03026        -3.04847
O         18.42094        25.07920         2.59280
H         19.24812        24.68452         2.94305
O         19.58071        12.49506         2.02839
H         20.33665        12.93464         2.47087
O          1.44113        29.33712        -0.94703
H          0.78639        28.79760        -1.43754
O         18.47503         7.53788        -2.06401
H         18.51825         8.42858        -2.47139
O         14.80537        18.55522        -1.21935
H         13.96263        18.16206        -1.53361
O         17.29441        16.96062         2.46499
H         18.12372        17.40031         2.75021
O         14.82430        21.26607         2.64108
H         15.56479        21.83553         2.94127
O          2.61075        18.30156         1.70325
H          1.81288        17.88005         2.08597
O          2.24117        29.62424         2.61695
H          1.89988        30.46772         3.01030
O         14.35721        35.49874        -2.46445
H         15.06550        35.00916        -2.93247
O          1.04311        16.66705        -2.21702
H          1.87166        16.33533        -2.62448
O         18.51248         6.49924         1.44272
H         18.52845         5.61496         1.86507
O          8.69695        29.32975         2.42970
H          8.17374        28.58487         2.79920
O         10.83912        16.55734        -1.42292
H         11.45405        15.96892        -1.90794
O          3.56191        37.28240         1.30712
H          3.60853        36.71220         2.10144
O         10.02827        16.73939         2.14709
H          9.31369        17.22332         2.61645
O          7.02558        17.17795         1.90077
H          6.99162        16.28000         2.29298
O          7.58132        18.33229        -1.52308
H          7.80401        19.21404        -1.88627
O          9.65408        21.27434         2.56527
H          8.84925        21.78781         2.79189
O          0.53329        27.65210         2.20978
H          1.15189        28.18572         2.76904
O          6.53356         7.51197         1.02892
H          5.72429         7.19944         1.48575
O          2.18545        22.62940         2.32586
H          2.93363        22.09339         2.66483
O          9.12577         8.14482         1.69050
H          9.88172         8.17807         2.31986
O         17.30224        29.58450        -2.00071
H         18.12834        29.99908        -2.33021
O          3.43256        19.27869        -1.72546
H          4.23752        19.69520        -2.09745
O          7.20730         8.73783        -2.36136
H          7.41058         7.87484        -2.79513
O          8.34681        25.00115        -1.23511
H          9.10579        24.58198        -1.69284
O          9.67766        12.71666         2.16218
H         10.45504        13.20212         2.51353
H          1.34179         2.26784         0.20879
H         -0.80280         3.48152         0.55429
H         -0.89728         5.94763         0.41568
H         -0.95799         7.77946        -0.48000
H         -0.99463        10.21083        -0.77712
H         -1.04212        12.23135        -0.34314
H         -1.01286        14.65153        -0.47330
H         -1.05059        16.52214        -0.14863
H         -1.05515        18.87015         0.37753
H         -1.03052        20.86832        -0.12855
H         -0.99357        23.28797        -0.08515
H         -0.74606        25.17526        -0.71215
H         -0.83097        27.59178        -0.39579
H         -1.05594        29.42371         0.81924
H         -1.09656        31.83531         1.09710
H         -1.02270        33.70745         0.13565
H         -0.95780        36.10908        -0.48564
H          0.32400        38.27259        -0.66699
H          3.73063         2.30340        -0.31745
H          2.46508        39.28575        -1.38670
H          6.19240         2.32712        -0.76749
H          4.95655        38.60855        -2.44246
H          8.68636         2.49960        -1.35239
H          7.61892        39.28813        -1.84214
H         11.05887         2.48152        -1.24353
H          9.84285        39.37569        -1.30857
H         13.53202         2.42000        -1.01692
H         12.24350        39.42425        -1.31652
H         16.00338         2.38495        -0.82867
H         14.72537        39.45574        -1.39965
H         18.47508         2.36649        -0.71647
H         17.19716        39.49690        -1.23919
H         20.62911         3.57545        -0.65881
H         21.90595         5.71725        -0.45575
H         21.94776         8.15285        -0.15791
H         21.95159        10.10978        -0.23859
H         21.95834        12.46046         0.25565
H         21.88485        14.38154         0.11728
H         21.87590        16.82206         0.14191
H         21.90413        18.66795         0.63027
H         21.91525        21.09377         0.75398
H         21.89071        23.00014         0.64026
H         21.88326        25.42416         0.45136
H         21.89364        27.36061         0.76770
H         21.87787        29.75981         0.32816
H         21.87837        31.52494        -0.42572
H         21.87128        33.93286        -0.75641
H         21.87416        35.84913        -0.87822
H         21.82443        38.29949        -1.12286
H         19.65646        39.52427        -1.24742
