         314
 CSIRO Nanostructure Databank - Neutral Graphene Oxide Data Set
C         30.57107        57.02080         1.87977
C         30.65173        58.39229         2.13002
C         29.51760        59.25822         2.32175
C         30.58798        61.46367         1.68311
C         29.51156        60.63173         2.05672
C         33.06775        52.75646         0.88237
C         33.00310        54.19182         0.98965
C         31.82167        54.84324         1.33675
C         33.03787        57.08703         1.08061
C         31.71250        56.29869         1.30641
C         33.12360        58.45842         1.62816
C         31.96206        58.98383         2.18721
C         33.13289        61.45383         1.31221
C         31.94022        61.10335         1.92447
C         35.45360        48.46063         0.08203
C         35.35094        49.81415        -0.01599
C         34.24475        50.52722         0.76683
C         35.49141        52.75553         0.71025
C         34.27017        52.05016         0.77578
C         35.44347        54.20306         0.44714
C         34.22503        54.95082         0.78547
C         35.53284        57.07137         0.97579
C         34.28755        56.33151         0.93630
C         35.55758        58.48843         1.26048
C         34.33514        59.20477         1.55215
C         35.56733        61.32572         1.48648
C         34.35087        60.66878         1.50609
C         37.68600        44.20573        -1.09049
C         37.71901        45.56285        -0.85484
C         36.55587        46.32461        -0.51796
C         37.81639        48.42972        -0.69610
C         36.60344        47.71453        -0.41294
C         37.77385        49.89790        -0.83416
C         36.37030        50.50271        -0.87129
C         38.00133        52.78797         0.35845
C         36.77926        52.11224         0.88293
C         38.02639        54.23712         0.41451
C         36.74557        54.97153         0.40072
C         37.98634        57.09352         0.72833
C         36.74810        56.40061         0.74599
C         38.00129        58.50491         0.92986
C         36.78965        59.17259         1.26105
C         38.02574        61.34599         1.17756
C         36.85332        60.60250         1.73672
C         40.12502        39.88005        -1.00675
C         40.08642        41.28780        -1.25253
C         38.91329        41.98653        -1.47455
C         40.17291        44.20692        -1.68458
C         38.87552        43.46463        -1.56083
C         40.29947        45.58133        -1.10687
C         39.01798        46.28350        -0.75810
C         40.30063        48.41797        -0.78879
C         39.05033        47.75263        -0.78293
C         40.32944        49.82146        -0.31124
C         39.06481        50.63039        -0.46541
C         40.38411        52.76198        -0.30870
C         39.10215        52.06397        -0.04542
C         40.41712        54.24745        -0.10542
C         39.19485        54.95825         0.29490
C         40.40655        57.12070         0.33173
C         39.21242        56.39761         0.45938
C         40.40451        58.54969         0.37025
C         39.21071        59.23461         0.71331
C         40.38864        61.38478         0.48037
C         39.19014        60.68442         0.77507
C         42.49887        35.83389         0.62611
C         42.50398        37.15812         0.13944
C         41.33284        37.81264        -0.36933
C         42.60978        39.89783        -0.78174
C         41.31117        39.18011        -0.69904
C         42.63349        41.38570        -0.78698
C         41.35109        42.06510        -1.08937
C         42.76048        44.13088        -1.76380
C         41.44684        43.41687        -1.71067
C         42.72029        45.64256        -1.83442
C         41.51997        46.36556        -1.35909
C         42.80297        48.48756        -1.11278
C         41.53978        47.73518        -1.05578
C         42.85370        49.88008        -0.82588
C         41.66197        50.54806        -0.25322
C         42.88420        52.78780        -0.61487
C         41.70966        52.05815         0.01606
C         42.89098        54.21861        -0.52568
C         41.73670        54.90778         0.07873
C         42.82680        57.17771        -0.35230
C         41.70195        56.42412         0.19515
C         42.79574        58.59080        -0.34423
C         41.60829        59.27443         0.08550
C         42.80692        61.41570         0.00124
C         41.59421        60.70811         0.17479
C         44.81116        33.25139         1.99908
C         43.65409        33.85361         1.53227
C         44.81382        36.03055         1.50834
C         43.64693        35.24320         1.22104
C         44.74504        37.40744         1.12242
C         43.71179        37.90239         0.32014
C         45.03179        40.09709         0.04340
C         43.85897        39.24144        -0.26224
C         45.09770        41.40827        -0.41965
C         43.94036        42.09456        -0.92238
C         45.24504        44.17641        -1.18437
C         43.99228        43.44189        -1.26707
C         45.33354        45.56717        -1.82451
C         44.02459        46.38708        -1.84180
C         45.21872        48.56676        -1.51006
C         44.01512        47.82845        -1.44846
C         45.24755        49.97001        -1.37963
C         44.02740        50.64740        -1.08462
C         45.15518        52.85224        -1.70307
C         44.00576        52.09645        -1.04683
C         45.19957        54.33108        -1.34973
C         44.01329        54.97379        -0.92510
C         45.17615        57.26464        -1.38912
C         43.90193        56.44832        -1.00445
C         45.21105        58.69248        -0.99218
C         44.00144        59.33673        -0.59903
C         45.25045        61.43080        -0.26635
C         44.01348        60.74680        -0.30889
C         45.98965        33.99482         2.16176
C         47.33845        36.02338         2.03325
C         46.03154        35.38959         1.95825
C         47.53335        37.38535         2.25525
C         45.72764        38.36384         1.55156
C         47.20910        40.34635         1.37195
C         46.03037        39.54914         0.91724
C         47.33838        41.71322         0.74211
C         46.43848        42.08989        -0.43326
C         47.73836        44.26118        -0.70221
C         46.38014        43.57886        -0.69187
C         47.62010        45.76249        -0.58688
C         46.41337        46.39832        -1.15718
C         47.77830        48.54787        -1.48322
C         46.48628        47.81530        -1.61919
C         47.72939        50.02588        -1.49029
C         46.52092        50.69792        -1.48048
C         47.66609        52.86200        -1.69996
C         46.49157        52.15314        -1.55524
C         47.64272        54.34341        -1.87634
C         46.38825        55.08263        -1.54055
C         47.66204        57.25237        -1.59885
C         46.40930        56.48694        -1.46328
C         47.69610        58.76777        -1.37738
C         46.42741        59.39865        -0.96776
C         47.71152        61.40027        -0.30951
C         46.46027        60.75835        -0.51594
C         48.62113        38.25555         2.01758
C         49.62389        40.45465         1.93747
C         48.47136        39.67109         1.84284
C         49.70778        41.82837         1.54144
C         48.62956        42.43271         0.81880
C         49.87187        44.52424         0.63486
C         48.73679        43.72661         0.31049
C         49.94138        45.92989         0.32435
C         48.85780        46.56117        -0.37390
C         50.01860        48.71582        -0.38206
C         48.91720        47.89587        -0.77825
C         50.15390        50.06832        -0.84359
C         49.07464        50.66699        -1.78773
C         50.08270        52.95716        -1.98656
C         48.95346        52.19825        -1.77732
C         50.22259        54.37421        -1.73194
C         48.94270        55.11041        -1.86476
C         50.18178        57.26895        -1.59854
C         48.92609        56.49794        -1.27202
C         50.18425        58.72610        -1.32903
C         49.00233        59.45016        -1.10406
C         50.11496        61.52403        -0.10217
C         48.96098        60.80220        -0.56317
C         50.88343        42.56927         1.74176
C         52.12816        44.68955         1.59485
C         50.96004        43.92154         1.34136
C         52.19347        46.06386         1.36210
C         51.03354        46.71836         0.77951
C         51.84070        49.02851         1.19726
C         50.98615        48.13727         0.51854
C         52.08051        50.32995         0.68896
C         51.30939        50.76443        -0.44902
C         52.53405        52.93200        -0.42286
C         51.76227        51.99057        -1.04951
C         52.67119        54.28440        -1.04089
C         51.40834        55.00767        -1.40211
C         52.70861        57.22903        -1.07127
C         51.47977        56.49791        -1.49438
C         52.69635        58.68641        -1.08845
C         51.48154        59.31939        -1.41078
C         52.66431        61.60129        -0.01804
C         51.40909        61.30311        -0.57470
C         53.48578        46.69853         1.58303
C         54.83832        48.79877         1.95054
C         53.65122        48.00969         1.98079
C         54.83459        50.19493         2.06708
C         53.01022        51.20492         1.28772
C         54.68602        53.22896         0.99112
C         53.28431        52.54048         0.77812
C         54.96152        54.45238         0.17682
C         53.90331        55.06163        -0.69198
C         55.13151        57.28020        -0.65216
C         53.85860        56.54663        -0.76529
C         55.10482        58.75048        -0.51571
C         53.87099        59.45001        -0.71257
C         55.07553        61.49992        -0.04907
C         53.83478        60.85020        -0.32816
C         55.90650        51.06002         1.78228
C         57.08351        53.14375         1.51179
C         55.86470        52.45360         1.48395
C         57.22270        54.50336         1.12118
C         56.14172        55.12673         0.37128
C         57.46139        57.29646         0.42387
C         56.34809        56.50980        -0.13376
C         57.48422        58.69109         0.28348
C         56.29939        59.41424        -0.15474
C         57.56084        61.63172         0.08361
C         56.28416        60.83969        -0.03867
C         58.39582        55.20923         1.37996
C         59.65995        57.31547         1.50360
C         58.52381        56.60567         1.09707
C         59.74294        58.71615         1.32090
C         58.63645        59.42289         0.75051
C         59.85171        61.51045         1.07429
C         58.70618        60.83821         0.65853
C         60.89855        59.43512         1.73694
C         60.95308        60.80833         1.60435
O         41.08708        49.89081         0.94237
O         43.53917        39.28933        -1.71633
O         53.77252        54.39061        -2.00842
O         41.83411        41.99228         0.29940
O         32.10320        56.91011        -0.00360
O         32.08413        60.13134         2.95826
O         39.86248        45.67973         0.29449
O         44.16150        56.93596        -2.36949
O         47.34348        47.98787        -2.78623
O         42.18726        43.47880        -2.96194
O         43.27996        46.17669        -3.08911
O         46.39020        38.06433         2.73389
O         56.14589        56.72741        -1.56523
O         53.54551        53.49875         1.85701
O         41.99315        55.53874         1.36272
O         38.64297        50.46243        -1.86511
O         46.75521        41.56485         2.07018
O         52.44537        48.65815         2.38435
O         47.68724        58.15704        -2.72625
O         53.61532        50.84285         2.46681
O         51.26743        52.28441        -2.31840
O         40.36739        53.64807        -1.46181
O         46.51426        46.22020         0.28606
O         50.91525        56.92530        -2.79720
O         36.90665        51.03839         1.52744
O         36.09179        51.41338        -1.63196
O         48.25292        54.87258        -3.11155
O         51.50913        60.64673        -1.82223
O         36.01282        54.64919        -0.84235
O         39.36026        44.05932        -2.87407
O         45.73456        45.35607        -3.18891
H         44.91690        45.36740        -3.73989
O         47.16467        41.52817        -1.60161
H         46.53999        41.52231        -2.35940
O         44.86677        52.80117        -3.14402
H         44.11645        53.40650        -3.32543
O         48.34210        44.00202        -1.99981
H         48.25780        43.03074        -2.15823
O         49.44256        50.23242        -3.11786
H         48.67441        50.36314        -3.71251
O         41.88957        52.24141         1.44452
H         41.55768        51.42607         1.88986
O         34.33916        50.07260         2.12574
H         35.26165        50.27874         2.41183
O         48.92872        56.29069         0.17566
H         48.93939        57.16583         0.61832
O         37.02986        60.52912         3.21752
H         37.87592        60.06063         3.38297
O         57.92800        62.11690        -1.22687
H         58.04254        61.34231        -1.81538
H         29.62055        56.48543         2.02664
H         28.53892        58.77302         2.45829
H         30.36331        62.41289         1.17556
H         28.51220        61.09379         2.00132
H         32.12255        52.19550         0.93246
H         30.94843        54.25624         1.65713
H         33.18826        62.33927         0.66223
H         34.68326        47.89331         0.62813
H         33.24575        50.19535         0.37712
H         35.58949        62.42153         1.38973
H         36.72937        43.66531        -1.02403
H         35.59878        45.80267        -0.37209
H         38.02486        62.44464         1.23912
H         39.17470        39.32487        -1.01976
H         37.95612        41.44365        -1.50259
H         40.39291        62.48360         0.53386
H         41.59332        35.21983         0.50760
H         40.38809        37.24844        -0.38469
H         42.82272        62.50410         0.15842
H         44.82119        32.17312         2.21100
H         42.74791        33.25733         1.35394
H         45.27067        62.49220         0.01999
H         46.90846        33.47796         2.47467
H         48.21381        35.37539         1.87220
H         47.70017        62.42534         0.08910
H         49.63880        37.84074         1.94698
H         50.54178        39.98507         2.32396
H         49.95963        62.26974         0.69195
H         51.73880        42.10941         2.25829
H         53.00019        44.18351         2.03520
H         52.76386        62.43192         0.69703
H         54.37622        46.06424         1.46168
H         55.77009        48.31247         1.63094
H         55.05791        62.58426         0.13662
H         56.91233        50.61252         1.79955
H         57.96230        52.63420         1.93383
H         57.38088        62.54229         0.71167
H         59.22247        54.70158         1.89888
H         60.48984        56.78201         1.98997
H         59.89527        62.60525         0.98609
H         61.74532        58.88060         2.16615
H         61.84746        61.36097         1.92349
