         477
 CSIRO Nanostructure Databank - Neutral Graphene Oxide Data Set
C         37.46003        50.01909         0.14003
C         36.32045        50.75393         0.27383
C         37.54517        52.85461         0.21456
C         36.38620        52.19344         0.42481
C         40.01339        48.57359         0.58225
C         39.92798        50.01549         0.42286
C         38.75639        50.67044         0.11098
C         40.04824        52.85558        -0.20957
C         38.73669        52.11514        -0.35755
C         40.09197        54.24650        -0.47519
C         42.48346        48.56581         1.13184
C         41.16919        47.90536         0.78946
C         42.46611        50.07135         0.85615
C         41.18628        50.78345         0.56575
C         42.47502        52.89618         0.16666
C         41.23154        52.18779         0.09277
C         42.47487        54.31539         0.03077
C         41.26137        54.96390        -0.31652
C         44.92345        45.84371         0.04088
C         43.73037        46.53504         0.24126
C         44.96918        48.57968         0.67216
C         43.72797        47.89055         0.58273
C         44.99357        50.03578         0.72055
C         43.71637        50.69888         0.25589
C         44.91637        52.90426         0.44392
C         43.71039        52.20090         0.35484
C         44.89828        54.32686         0.43758
C         43.70518        55.03589         0.24099
C         44.91014        57.18134         0.35886
C         43.73530        56.47636         0.25029
C         47.45175        44.34991        -0.01067
C         47.41256        45.70498         0.27297
C         46.16669        46.46443         0.27720
C         47.44281        48.53263         0.91283
C         46.17895        47.84836         0.58339
C         47.42950        50.02954         1.11369
C         46.16585        50.75292         0.83276
C         47.38529        52.88883         0.52687
C         46.19783        52.19715         0.61066
C         47.36384        54.33583         0.06338
C         46.19232        55.04714         0.74069
C         47.39669        57.21461         0.43300
C         46.16966        56.52885         0.45615
C         47.44635        58.64219         0.53222
C         49.90284        44.25420        -0.16796
C         48.65983        43.63951        -0.21282
C         49.98746        45.63615         0.33805
C         48.67458        46.39456         0.59367
C         49.93959        48.57105         0.51433
C         48.72469        47.86342         0.62626
C         49.96478        50.01217         0.62154
C         48.74269        50.75452         1.01078
C         49.93154        52.93003         0.32812
C         48.69500        52.24521         0.76460
C         49.90929        54.36155         0.17312
C         48.67031        55.08229         0.22967
C         49.87288        57.23973         0.23379
C         48.65205        56.49193         0.31065
C         49.88421        58.63065         0.39241
C         48.63478        59.31491         0.56685
C         52.37491        41.49697        -0.83898
C         51.17701        42.17392        -0.70516
C         52.35818        44.31066        -0.54223
C         51.13425        43.57441        -0.50211
C         52.33567        45.75235        -0.37966
C         51.19354        46.43626         0.05332
C         52.35685        48.63113        -0.02290
C         51.16518        47.86720         0.19610
C         52.33976        50.04702         0.03807
C         51.13932        50.74443         0.33271
C         52.36702        52.92666         0.08596
C         51.12549        52.20945         0.24978
C         52.36208        54.36161         0.09113
C         51.13311        55.06160         0.07810
C         52.40315        57.24754         0.09556
C         51.11816        56.53534        -0.23687
C         52.38201        58.68921         0.25204
C         51.13339        59.37443         0.38229
C         52.33990        61.48853         0.58582
C         51.15428        60.77787         0.54546
C         54.95541        40.08122        -0.69473
C         54.87971        41.45818        -0.82330
C         53.61704        42.18362        -0.78904
C         54.85359        44.32701        -0.50996
C         53.58016        43.59884        -0.69379
C         54.87362        45.79267        -0.75157
C         53.54857        46.53327        -0.66198
C         54.83112        48.63991        -0.29849
C         53.58549        47.96093        -0.34909
C         54.85171        50.05953        -0.18631
C         53.56105        50.78902        -0.45044
C         54.81940        52.93999        -0.02996
C         53.59017        52.24118        -0.06272
C         54.82222        54.37162         0.09315
C         53.60292        55.08032         0.08824
C         54.86284        57.22322         0.24952
C         53.60100        56.53215         0.12152
C         54.87625        58.71114        -0.02601
C         53.58787        59.41724         0.29754
C         54.83248        61.56841         0.48957
C         53.59177        60.83410         0.45021
C         54.87318        63.00042         0.46371
C         57.42984        39.99849        -0.82454
C         56.17663        39.37157        -0.74252
C         57.45535        41.46198        -0.89659
C         56.15154        42.20188        -1.16909
C         57.38560        44.41853        -0.82737
C         56.16513        43.61257        -0.62178
C         57.37815        45.78412        -0.58401
C         56.12318        46.52555        -0.48258
C         57.31660        48.61400         0.15280
C         56.07455        47.89662        -0.30278
C         57.31465        50.10328        -0.09523
C         56.07390        50.79256        -0.12298
C         57.29910        52.94894        -0.02710
C         56.06529        52.23152        -0.08674
C         57.29318        54.38710         0.14080
C         56.07125        55.07813         0.21114
C         57.31072        57.21237         0.69967
C         56.04315        56.51439         0.36615
C         57.33755        58.73697         0.74376
C         56.08533        59.46216         0.46052
C         57.34939        61.56774         0.75847
C         56.06759        60.83939         0.55498
C         57.33786        63.06801         0.75831
C         56.03394        63.71739         0.53826
C         59.92798        37.13978        -0.74939
C         58.72196        37.85646        -0.76944
C         59.97581        39.99184        -0.69134
C         58.65587        39.25752        -0.81900
C         59.94749        41.45541        -1.19766
C         58.62607        42.16940        -0.93847
C         59.91740        44.41068        -1.02771
C         58.62400        43.65581        -1.10748
C         59.87958        45.87169        -0.75625
C         58.61806        46.55168        -0.53938
C         59.78608        48.69456        -0.22852
C         58.58004        47.91996        -0.27641
C         59.78412        50.07730        -0.18651
C         58.53316        50.81468        -0.15206
C         59.79305        52.99349        -0.10529
C         58.52190        52.23807        -0.12325
C         59.75324        54.40310         0.31757
C         58.55691        55.09961         0.29700
C         59.79614        57.25193         0.57008
C         58.58511        56.52539         0.51902
C         59.80873        58.70436         0.56779
C         58.62154        59.41659         0.56142
C         59.88695        61.59385         0.66426
C         58.61127        60.88756         0.24544
C         59.87635        63.01539         0.74848
C         58.62195        63.77228         0.31476
C         59.82212        65.87253         0.88715
C         58.65710        65.21829         0.72734
C         62.51485        35.62468        -0.79515
C         62.41014        37.04652        -0.87617
C         61.19116        37.75744        -0.90029
C         62.43923        39.98957        -1.25907
C         61.11924        39.21294        -1.37628
C         62.43032        41.36004        -0.66538
C         61.16372        42.16232        -0.58346
C         62.39947        44.50474        -0.58794
C         61.15659        43.68737        -0.56499
C         62.35940        45.88915        -0.76275
C         61.07673        46.55434        -0.66633
C         62.31524        48.62225         0.21888
C         61.05289        47.93578        -0.15636
C         62.24126        50.12693         0.43049
C         61.12307        50.76478        -0.41591
C         62.34206        52.92724         0.33517
C         61.10834        52.27504        -0.18528
C         62.30588        54.35662         0.69667
C         60.99987        55.10303         0.67044
C         62.28082        57.25228         0.52507
C         61.04615        56.56829         0.56383
C         62.29626        58.69235         0.50847
C         61.08087        59.40896         0.54873
C         62.35062        61.47644         1.06923
C         61.07179        60.83600         0.73863
C         62.32477        63.04301         1.23138
C         61.06282        63.74211         0.96512
C         62.31710        65.87888         0.78482
C         61.09690        65.17500         0.84952
C         62.34971        67.28567         0.42977
C         64.99940        35.64601        -0.76762
C         63.72233        34.96226        -0.71622
C         64.97026        37.02121        -0.90717
C         63.69927        37.79368        -0.64382
C         64.96140        39.95672        -0.72480
C         63.72668        39.23207        -1.11712
C         64.91084        41.25510        -0.28699
C         63.57728        41.77883        -0.03795
C         64.86449        44.07888        -0.75870
C         63.63511        43.88596        -0.19073
C         64.85831        46.13841        -0.98671
C         63.58879        46.66788        -0.65255
C         64.83625        48.60810         0.11581
C         63.60694        47.97107        -0.11429
C         64.83621        50.08453         0.20356
C         63.55551        50.81973         0.14291
C         64.79883        52.95632         0.60676
C         63.53472        52.26548         0.43972
C         64.78263        54.39443         0.55192
C         63.56160        55.11703         0.56274
C         64.77504        57.24259         0.37206
C         63.53123        56.52661         0.50118
C         64.79566        58.65927         0.39038
C         63.57306        59.39577         0.51057
C         64.90028        61.52699         0.97050
C         63.59793        60.77950         0.74181
C         64.75856        62.99250         0.59587
C         63.57344        63.78042         1.02577
C         64.84008        65.91563         0.80159
C         63.55929        65.15010         0.81726
C         64.81099        67.41060         0.57235
C         63.49514        67.99032         0.24150
C         67.38087        32.88931         0.11477
C         66.27658        33.54581        -0.39965
C         67.51861        35.65304        -0.45658
C         66.27885        34.94272        -0.59530
C         67.50086        37.07376        -0.74528
C         66.23505        37.74910        -1.03834
C         67.45266        39.98538        -0.47443
C         66.24425        39.29884        -0.94125
C         67.39091        41.38848        -0.19404
C         66.13609        42.06059        -0.19618
C         67.32292        44.25141        -0.36475
C         66.13203        43.46887        -0.38338
C         67.35535        45.78987        -0.71594
C         66.07675        46.60027        -0.46972
C         67.33127        48.67321         0.18236
C         66.07935        47.93060         0.00831
C         67.31604        50.06023         0.41583
C         66.03254        50.75037         0.82477
C         67.26012        52.94035         0.71215
C         66.01043        52.25195         0.65268
C         67.26933        54.37684         0.56204
C         66.01385        55.09900         0.44407
C         67.22292        57.17500        -0.16404
C         65.99221        56.49289         0.28699
C         67.26111        58.65969        -0.13750
C         66.13427        59.35423         0.60238
C         67.21542        61.50341        -0.15602
C         66.12399        60.84384         0.35597
C         67.14802        62.95149        -0.30119
C         65.95994        63.72722         0.16402
C         67.10934        65.89770        -0.35157
C         66.16941        65.17063         0.60882
C         67.36090        67.34552        -0.15941
C         66.11064        68.14211         0.26236
C         67.28613        70.17374        -0.44378
C         66.11863        69.55560        -0.12653
C         69.54189        31.56655         1.55823
C         69.54864        32.96243         1.33371
C         68.53781        33.60402         0.49654
C         69.84032        35.67562         0.61110
C         68.65256        34.97663         0.13604
C         70.24776        36.92823         0.10454
C         68.63232        37.89740        -0.82851
C         69.88367        39.97492        -0.04438
C         68.67028        39.29260        -0.47475
C         69.85691        41.40952         0.03390
C         68.59906        42.13747        -0.08082
C         69.77578        44.32513         0.19375
C         68.53340        43.56457        -0.09613
C         69.85278        45.76920        -0.28425
C         68.51480        46.46017         0.06425
C         69.78078        48.69937         0.12801
C         68.57204        47.98995         0.01485
C         69.77888        50.10586         0.39272
C         68.52631        50.78784         0.50394
C         69.71704        52.89763         1.03969
C         68.47368        52.20494         0.73947
C         69.71384        54.46335         0.90950
C         68.47555        55.06964         0.46205
C         69.80710        57.20701         0.01931
C         68.51737        56.42479        -0.11323
C         69.74775        58.69394        -0.07597
C         68.57318        59.36060        -0.20498
C         69.80019        61.51611        -0.64916
C         68.46152        60.77073        -0.75620
C         69.92379        62.82208        -1.15885
C         67.85687        63.69100        -1.20712
C         69.88678        66.03308        -1.29229
C         67.79603        65.13187        -1.23743
C         69.82652        67.39848        -0.89464
C         68.55968        68.07841        -0.67389
C         69.79777        70.22441        -0.62865
C         68.55077        69.47566        -0.57451
C         69.81814        71.64045        -0.62081
C         71.33504        31.77016         3.16739
C         70.42426        30.97747         2.45358
C         71.37675        33.14019         2.95017
C         70.50444        33.75722         2.02541
C         71.54547        36.03301         2.32284
C         70.62364        35.16644         1.68730
C         71.69114        37.36766         1.94974
C         71.03675        37.85587         0.79833
C         72.22411        40.01478         0.65916
C         71.05822        39.27954         0.40128
C         72.25236        41.40159         0.51566
C         71.07361        42.11113         0.26277
C         72.30511        44.37913         0.05367
C         71.07478        43.59490         0.34183
C         72.31065        45.72348         0.03217
C         71.06067        46.52227         0.34659
C         72.28144        48.73737         0.43463
C         71.10468        47.99108        -0.13568
C         72.24439        50.06099         0.68716
C         71.01366        50.83083         0.62703
C         72.17971        53.01483         1.11146
C         71.00562        52.20708         0.91738
C         72.17438        54.39342         1.10912
C         71.00376        55.17947         0.83249
C         72.09942        57.42935         0.97744
C         71.00198        56.55916         0.61063
C         72.11122        58.75326         0.69055
C         71.08778        59.37841        -0.22787
C         72.12273        61.69440        -0.02504
C         70.97812        60.89408        -0.18127
C         72.10804        63.06673        -0.27665
C         71.00937        63.70040        -0.90099
C         72.18114        65.91394        -0.70371
C         70.99999        65.19293        -1.04223
C         72.22656        67.29739        -0.62143
C         71.04948        68.08300        -0.66773
C         72.24327        70.26748        -0.46791
C         71.04065        69.52888        -0.56576
C         72.23176        71.65341        -0.45884
C         71.01128        72.34270        -0.54601
O         63.27487        39.67686        -2.43816
O         60.90056        42.88207         0.65001
O         41.81238        50.76945         1.94418
O         63.52737        42.90013         0.80509
O         70.31820        44.07425         1.53393
O         64.86265        66.84314         1.93208
O         61.58002        47.91256         1.27263
O         59.37264        44.05467        -2.34521
O         66.33497        38.60916        -2.22982
O         54.17898        46.18326        -1.96755
O         57.47475        62.30207         2.00657
O         62.36241        62.14624         2.39151
O         64.91523        45.00305        -1.82787
O         68.77894        65.65863        -2.07988
O         47.39137        49.14559         2.27107
O         48.89171        51.69435         2.12605
O         69.84008        37.28723        -1.18705
O         57.23914        57.93873         1.98284
O         55.56787        43.85823         0.69305
O         66.93916        57.97693        -1.38864
O         64.31838        50.58430        -1.08818
O         49.45061        45.78714         1.68778
O         64.91501        63.40711        -0.83172
O         61.57843        54.60351         1.95837
O         60.59094        52.93572        -1.39917
O         67.13095        67.77007         1.23330
O         68.88543        63.22378        -2.00728
O         69.59722        53.77700         2.19851
O         69.39656        56.56938        -1.26289
O         65.88667        50.49584         2.26054
H         66.64355        50.91703         2.72031
O         63.73907        37.99053         0.83200
H         63.58967        37.11466         1.24931
O         70.90020        46.61027         1.78124
H         70.90483        45.67682         2.11886
O         54.98631        58.76527        -1.51429
H         54.85655        59.70163        -1.77947
O         38.50036        52.04947        -1.80797
H         37.64513        51.58637        -1.93737
O         53.43749        50.81068        -1.93665
H         53.48769        49.87820        -2.24094
O         61.46325        50.52303        -1.79830
H         61.10423        51.27989        -2.31725
O         68.19360        60.59302        -2.17031
H         67.56382        59.84531        -2.27434
O         56.11988        42.39062        -2.62159
H         56.23235        41.51219        -3.04254
O         58.51983        61.00346        -1.22928
H         59.27739        60.51205        -1.61397
O         66.46350        59.16908         2.01696
H         65.97999        59.87376         2.51876
O         60.79241        39.06297        -2.77027
H         61.63548        39.13557        -3.27453
O         70.06233        45.65673        -1.69623
H         70.25631        46.55151        -2.06132
O         60.11148        41.46715        -2.62852
H         59.90026        42.38174        -2.94113
O         71.55426        59.09336        -1.58447
H         70.82781        59.32478        -2.20239
O         65.10599        61.52120         2.42515
H         64.23819        61.77189         2.83258
O         42.61398        48.40117         2.57459
H         42.14442        49.16747         2.98119
O         46.42224        54.92670         2.17652
H         45.64878        55.30757         2.64208
O         68.22212        46.16895         1.45190
H         68.99371        46.48344         1.98272
O         51.02870        56.59403        -1.72533
H         51.88392        56.26401        -2.07703
O         71.30550        47.98978        -1.58598
H         71.32433        48.92368        -1.88440
O         60.30156        40.01623         0.71827
H         59.72288        40.66551         1.17048
O         47.09338        54.32415        -1.37259
H         47.94721        54.24251        -1.84700
O         61.95668        50.39468         1.81436
H         61.58645        49.56322         2.19837
O         58.61463        63.77109        -1.14503
H         58.57979        62.82476        -1.43848
O         43.60652        50.37592        -1.17572
H         44.31329        50.86326        -1.64958
O         66.82999        65.08516         1.88542
H         66.80179        65.99624         2.26757
O         57.30291        48.49814         1.63019
H         57.37887        47.54548         1.85351
O         67.59634        45.87996        -2.13022
H         66.82041        45.47987        -2.58276
H         37.39830        48.92157         0.15951
H         35.34530        50.25488         0.36058
H         37.59305        53.94594         0.34083
H         35.48285        52.72960         0.74994
H         39.09122        47.98794         0.45477
H         39.17564        54.77015        -0.78047
H         41.12044        46.81137         0.89437
H         41.24528        56.04861        -0.48704
H         44.87455        44.77852        -0.22000
H         42.78379        45.98663         0.14457
H         44.86679        58.27760         0.29391
H         42.79630        57.03479         0.14177
H         46.51680        43.79801        -0.17601
H         46.51345        59.21073         0.64188
H         48.57945        42.58593        -0.51288
H         48.61575        60.40427         0.69562
H         52.35380        40.40647        -0.96722
H         50.24360        41.59539        -0.71081
H         52.29867        62.57607         0.72971
H         50.21662        61.33806         0.65072
H         54.04190        39.49451        -0.52213
H         53.93457        63.55260         0.31469
H         56.12556        38.27780        -0.65749
H         55.99861        64.80619         0.39105
H         59.87149        36.05193        -0.59393
H         57.79125        37.27160        -0.72098
H         59.81417        66.94637         1.12192
H         57.70930        65.76969         0.80348
H         61.59648        35.02066        -0.83326
H         61.39462        67.78290         0.21013
H         63.69976        33.86598        -0.66096
H         63.44133        69.02305        -0.13136
H         67.30220        31.81272         0.31324
H         65.36843        32.96195        -0.59743
H         67.25651        71.25058        -0.65871
H         65.17533        70.11938        -0.14328
H         68.84047        30.92169         1.01210
H         68.88041        72.20885        -0.67666
H         72.02626        31.30519         3.88375
H         70.40432        29.88969         2.60727
H         72.11418        33.74352         3.49663
H         72.12716        35.66790         3.17971
H         72.33824        38.03089         2.54076
H         73.13399        39.48819         0.97855
H         73.19030        41.94236         0.70229
H         73.22455        43.82792        -0.19495
H         73.24223        46.25375        -0.21728
H         73.23153        48.19428         0.54356
H         73.16045        50.56479         1.02692
H         73.15311        52.51328         1.21014
H         73.13887        54.91348         1.20382
H         72.91840        57.00205         1.57574
H         72.95282        59.36665         1.04382
H         73.05850        61.24177         0.33031
H         73.01512        63.63142        -0.02791
H         73.12922        65.37601        -0.57774
H         73.20043        67.77694        -0.45647
H         73.20572        69.74106        -0.41227
H         73.17536        72.21221        -0.39195
H         71.00088        73.44144        -0.54630
