         276
 CSIRO Nanostructure Databank - Neutral Graphene Oxide Data Set
C        -11.09394         0.53916        -0.51213
C         -9.95755         1.44913        -0.42464
C         -8.60506         0.82897        -0.54289
C         -7.56185         1.42217         0.37447
C         -6.33647         0.64248         0.76022
C         -5.05973         1.43084         0.59764
C         -3.76999         0.68586         0.75161
C         -2.52949         1.46652         1.01185
C         -1.27434         0.69256         0.84602
C         -0.23248         1.47259         0.09240
C          1.00410         0.65302        -0.39091
C          2.30351         1.36674        -0.60979
C          3.58108         0.60905        -0.91219
C          4.84219         1.25996        -0.40889
C          6.10533         0.48787        -0.24152
C          7.37914         1.22448         0.08345
C          8.45560         0.37947         0.64530
C          9.44600         1.04967         1.49719
C         10.36592         0.16947         2.21393
C         -9.98604         2.81360        -0.34136
C         -8.66214         3.55883        -0.50628
C         -7.59499         2.94066         0.38451
C         -6.37359         3.70821         0.73554
C         -5.05185         2.99056         0.46323
C         -3.79805         3.67054         1.02118
C         -2.49081         2.96291         0.88020
C         -1.28927         3.61778         0.95992
C          0.03492         2.80730         0.88528
C          1.15434         3.51718         0.12836
C          2.47221         2.74564         0.01876
C          3.64325         3.49965        -0.60849
C          5.00167         2.77642        -0.55565
C          5.93383         3.32363         0.55237
C          7.29703         2.65929         0.47433
C          8.31597         3.32930         1.37709
C          9.49952         2.41590         1.64039
C         -8.65918         5.07623        -0.44298
C         -7.57634         5.81851        -0.09969
C         -6.37916         5.20392         0.54125
C         -5.08822         5.95501         0.71796
C         -3.80872         5.17792         0.97602
C         -2.49883         5.90677         0.78523
C         -1.23281         5.11118         0.99889
C          0.12106         5.79000         0.80774
C          1.14582         4.99452         0.02364
C          2.37726         5.74116        -0.43099
C          3.66339         4.98312        -0.55825
C          4.88494         5.66844        -0.00672
C          6.05158         4.86674         0.49283
C          7.41833         5.48888         0.45765
C          8.49835         4.74724         0.81875
C         -7.62759         7.34271        -0.21729
C         -6.28245         8.09473        -0.14685
C         -4.98223         7.39596         0.28226
C         -3.70563         7.95476        -0.14948
C         -2.53333         7.02115        -0.29240
C         -1.19344         7.74845        -0.51632
C          0.03688         7.14743         0.07695
C          1.35521         7.85728         0.34195
C          2.46698         7.24718        -0.48264
C          3.82597         7.89880        -0.81514
C          4.99487         7.16495        -0.15692
C          6.34476         7.79578        -0.21539
C          7.60194         6.91059        -0.13441
C         -6.10794         9.32397        -0.94322
C         -4.90034         9.93502        -1.02947
C         -3.64679         9.27502        -0.66890
C         -2.43684         9.90592        -0.98347
C         -1.12321         9.18349        -1.13632
C          0.08824         9.99970        -0.63169
C          1.37135         9.89223        -0.99006
C          2.65890        10.08976        -1.25592
C          3.87617         9.43126        -0.54225
C          5.24222         9.87320        -1.06384
C          6.35779         9.13420        -0.89042
C        -11.02509        -0.82364        -0.48452
C         -9.88761        -1.67051        -0.10591
C         -8.88274        -1.14915         0.89134
C         -7.45520        -1.61198         0.66530
C         -6.31060        -0.86349         0.67195
C         -4.99581        -1.59331         0.72327
C         -3.70494        -0.83943         0.84552
C         -2.44626        -1.54932         1.40226
C         -1.16623        -0.79388         1.00170
C          0.10473        -1.51067         0.67145
C          1.05877        -0.87008        -0.29981
C          2.31045        -1.63608        -0.66192
C          3.56861        -0.88541        -1.06347
C          4.92098        -1.61677        -1.11737
C          6.21648        -0.89576        -0.81760
C          7.62477        -1.53984        -0.75522
C          8.49724        -0.95814         0.35628
C          9.61733        -1.76460         0.89294
C         10.36276        -1.16975         2.02840
C         -9.75167        -2.97484        -0.46610
C         -8.67801        -3.81112         0.22580
C         -7.33263        -3.05601         0.21277
C         -6.26271        -3.79745         0.99926
C         -4.99050        -3.03078         1.20355
C         -3.67469        -3.77975         1.26613
C         -2.39508        -3.03948         0.85556
C         -1.10012        -3.73922         1.27165
C          0.16946        -2.99979         0.98973
C          1.46243        -3.73174         0.74452
C          2.53168        -3.01379        -0.05763
C          3.64713        -3.83132        -0.66623
C          4.85612        -3.13241        -1.34625
C          6.23959        -3.81806        -1.12310
C          7.54329        -3.08341        -0.86502
C          8.85028        -3.86973        -0.56222
C          9.74775        -3.20392         0.50627
C         -8.48359        -5.20447        -0.41242
C         -7.21689        -5.94978         0.00824
C         -6.19993        -5.29727         0.89405
C         -4.86241        -5.95041         1.02113
C         -3.68355        -5.26195         1.12354
C         -2.34544        -5.96197         0.86265
C         -1.08747        -5.25135         1.35922
C          0.23776        -5.99997         1.34988
C          1.46493        -5.24049         0.88852
C          2.58445        -5.91302         0.50505
C          3.73249        -5.24576        -0.19242
C          5.10745        -5.90959        -0.04957
C          6.18232        -5.33522        -0.97537
C          7.49091        -6.01393        -0.60118
C          8.62682        -5.33868        -0.30383
C         -6.98375        -7.18191        -0.50928
C         -5.91966        -8.06083         0.03736
C         -4.87907        -7.42585         0.92124
C         -3.61287        -8.16747         1.20751
C         -2.33426        -7.41104         1.30039
C         -1.06818        -8.25533         1.10023
C          0.28096        -7.56903         1.44290
C          1.47414        -8.34025         0.66154
C          2.75663        -7.39830         0.70714
C          3.82102        -8.09090        -0.17746
C          5.00357        -7.30006        -0.66809
C          6.25413        -8.11897        -0.81950
C          7.45364        -7.47170        -0.71141
C         -5.52460        -9.32326        -0.63443
C         -4.44535       -10.03307        -0.26268
C         -3.56497        -9.67022         0.91421
C         -2.08421       -10.05404         0.70222
C         -1.21392        -9.12344        -0.11956
C         -0.18578        -9.47127        -0.93582
C          1.15667        -8.95739        -0.71284
C          2.18210        -9.55782        -1.39227
C          3.58226        -9.30600        -1.02608
C          4.75739        -9.81380        -1.78880
C          6.01788        -9.38619        -1.50186
O          2.02477         6.48959        -1.63674
O          1.36850         1.20370        -1.69593
O         -6.85535        -3.02296        -1.15988
H         -7.26268        -2.25300        -1.61515
O         -7.32567         1.00984         1.75212
O          5.71758        -0.99023        -2.17713
O          0.53587        -7.81020         2.81162
H          0.72947        -8.77611         2.88766
O         -8.30198         0.02029        -1.41256
O          5.55864         7.80010         1.01935
O          3.48801        -0.00127        -2.21850
O          1.17178        -1.57060        -1.56914
O         -2.53580        -1.54358         2.81596
H         -1.66306        -1.83279         3.17342
O          3.27043        -7.50436         2.04290
H          3.04728        -8.44764         2.29580
O         -0.35240        -3.17036         2.35637
O          0.71361         5.96302         2.09909
H          0.00885         6.24440         2.72589
O          3.58345         4.25976        -1.84107
O          1.80764        -9.42119         1.45127
O         -3.05642        -7.75213         2.50345
O          3.23176        -4.92101        -1.53292
O         -1.84070         5.95314         2.07510
O         -3.89712         4.44740         2.23516
O         -4.95344         3.28888        -0.96398
H         -4.43755         2.56324        -1.39411
O         -0.93890         1.85861        -1.10786
H         -0.26193         2.06812        -1.79781
O          4.73541        -6.89334        -2.07057
O         -9.23673        -0.51438         1.86555
O          7.81335         2.28747        -0.82629
O         -6.03119         5.84335         1.81485
O          5.76711        -5.85253        -2.30469
O          7.11529        -3.43453        -2.22071
O         -0.98319         9.01079        -2.56001
H         -0.33335         8.28399        -2.70098
O         -6.69771        -4.61962         2.09237
O         -2.27315        -3.10025        -0.58869
H         -3.01795        -2.58285        -0.99393
O         10.61816        -2.23476        -0.12232
O         -2.81535         6.25888        -1.50484
H         -1.95200         6.09162        -1.95316
O         -0.44017        -5.60733         2.59084
O         -1.72177         1.13975         2.18838
O         -4.13768        -1.39428        -0.44520
O          0.47958         2.54407         2.21923
H         -0.24227         2.05648         2.69216
O         -5.74704         8.27041         1.18768
O         -4.33086        -3.27197         2.46665
O          9.61816        -3.84958        -1.78237
H         10.03769        -2.95875        -1.83610
O          5.06078         5.39708         1.43389
O         -1.35273        -9.50472         1.88077
O          4.04045         7.77926        -2.23644
H          3.43764         7.07352        -2.57750
O          0.63595         4.16039        -1.06552
O         -7.35806         3.39433         1.74723
O         -6.02687        -8.10627         1.50573
O          5.41455         2.95572         1.82558
H          4.94296         3.72877         2.21056
O         -0.31149         6.90376        -1.31770
O          5.17021         0.62817         0.87558
O          5.50862        -5.88662         1.31496
H          4.85038        -6.40940         1.84079
O          1.54898         8.46179         1.39033
O          8.60008         7.60851         0.61317
H          8.19231         7.89345         1.45761
O          4.01709        -9.39440         0.40633
O         -4.03436       -10.39470         2.06249
H         -3.63768        -9.95878         2.84879
O         -0.02051        -0.84053         1.95362
O          4.56947        -3.27730        -2.74458
H          5.35931        -2.95700        -3.23445
O          2.94908         2.51990         1.35779
H          2.18916         2.34518         1.96832
O          2.58774        -3.03806         1.39939
O          7.73179         3.48692         2.69837
H          8.35149         4.01525         3.24255
O          8.30172        -1.11140        -1.95550
H          7.80129        -1.49608        -2.71125
O         -9.63523        -5.97944        -0.05174
H         -9.38554        -6.92528        -0.00584
O         -4.31109         0.97190        -0.57585
O         -2.20299        -5.98575        -0.59249
H         -2.21946        -5.04756        -0.90945
O          3.84652         9.77248         0.83534
H          3.04703         9.38506         1.26846
O         -8.29899         7.70009        -1.42847
H         -7.85198         7.26320        -2.18205
O          5.66218         3.02058        -1.80220
H          5.05079         2.81389        -2.54021
O         -9.10715        -3.96505         1.58284
H         -9.67363        -4.76845         1.61099
O         -8.19069         3.22195        -1.85224
H         -8.87968         3.48635        -2.49738
H         11.04741        -1.81664         2.59615
H         11.01684         0.61857         2.97918
H         10.29782         2.82932         2.28096
H          9.50383         5.19349         0.75333
H          8.00550         6.78628        -1.17641
H          7.32539         9.51037        -1.25668
H          5.31992        10.85538        -1.55620
H          2.89744        10.78400        -2.08410
H         -0.14386        10.76829         0.13148
H         -2.48072        10.92485        -1.39794
H         -4.81770        10.89875        -1.55376
H         -6.99816         9.77671        -1.40343
H         -8.25915         7.73309         0.62268
H         -9.53184         5.59715        -0.87118
H        -10.93682         3.36547        -0.27226
H        -12.07580         0.99908        -0.70741
H        -11.95589        -1.36969        -0.71259
H        -10.48141        -3.46261        -1.13272
H         -8.45779        -5.08338        -1.53669
H         -7.68440        -7.61496        -1.24211
H         -6.13447        -9.65655        -1.48857
H         -4.20802       -10.96769        -0.79456
H         -1.92717       -11.14969         0.57242
H         -0.29939       -10.31826        -1.63208
H          1.97454       -10.17974        -2.27642
H          4.60728       -10.68607        -2.44279
H          6.88387        -9.89954        -1.94591
H          8.40145        -8.01128        -0.85909
H          9.53754        -5.91756        -0.07994
H         10.27943        -3.89334         1.20193
