         658
 CSIRO Nanostructure Databank - Neutral Graphene Oxide Data Set
C          5.96690        31.99115        -0.38575
C          5.91752        33.30969        -0.71340
C          8.67560        27.94381         0.37764
C          8.02196        28.84011        -0.41373
C          7.10722        29.90952        -0.07109
C          8.09742        31.69203        -1.72959
C          7.08956        31.13160        -0.70318
C          8.27010        33.21096        -1.53573
C          7.07984        33.99652        -1.22408
C          8.25868        36.12320        -1.59079
C          7.08284        35.38086        -1.26424
C          8.33118        37.50287        -1.51509
C         11.37083        23.93252         1.19591
C         11.09238        25.07755         0.41965
C         10.01631        25.96378         0.69168
C         10.76673        27.49411        -1.08616
C          9.78343        27.09765        -0.08133
C         10.76312        28.85262        -1.62301
C          9.53688        29.60882        -1.75350
C         10.70551        31.68971        -2.10241
C          9.44967        30.97246        -1.78198
C         10.71475        33.19002        -2.13572
C          9.43523        33.87807        -1.82046
C         10.80355        36.07208        -1.96252
C          9.45200        35.34724        -1.96168
C         10.81727        37.50105        -1.62722
C          9.58386        38.20789        -1.54572
C         10.82274        40.32400        -1.20890
C          9.61993        39.59216        -1.29874
C         10.66328        41.71277        -0.84782
C         13.93058        19.89317         2.13223
C         13.86112        21.10194         1.45956
C         12.77755        21.98866         1.73919
C         13.37769        23.41569        -0.16679
C         12.53202        23.14627         0.97196
C         12.89266        24.37226        -1.04991
C         11.93971        25.37657        -0.69306
C         13.10163        27.23066        -2.02553
C         11.88422        26.65667        -1.34164
C         13.18652        28.75345        -2.08570
C         11.95889        29.53001        -1.85799
C         13.20000        31.65900        -1.96205
C         11.99165        30.96154        -1.97893
C         13.22545        33.11496        -1.81445
C         11.99390        33.88374        -1.86013
C         13.21250        35.97281        -1.36161
C         12.02319        35.27549        -1.72114
C         13.25929        37.37204        -1.23503
C         12.04364        38.16588        -1.39008
C         13.36490        40.18938        -1.03702
C         12.07639        39.58866        -1.27807
C         13.54877        41.58140        -1.07086
C         11.64711        42.69359        -0.99977
C         13.14320        44.52971        -0.23073
C         11.82456        43.95092        -0.41131
C         13.23452        45.88820        -0.05514
C         15.94228        15.30714         2.35860
C         15.97252        16.68285         1.98279
C         14.92089        17.55910         2.24010
C         16.05401        19.35762         0.91543
C         15.14882        19.03521         2.07618
C         15.92991        20.61107         0.21355
C         14.87167        21.46116         0.46011
C         15.52330        22.95245        -1.56520
C         14.80703        22.83348        -0.17943
C         15.71519        24.42227        -1.87118
C         14.55736        25.17671        -2.19775
C         15.70727        27.31509        -2.17782
C         14.43051        26.53962        -2.00317
C         15.63256        28.74974        -1.72603
C         14.46813        29.46731        -1.86378
C         15.64154        31.62717        -1.67161
C         14.45357        30.92812        -1.79696
C         15.73403        33.11838        -1.85032
C         14.41661        33.77580        -1.55310
C         15.70197        35.86820        -0.90543
C         14.38475        35.13912        -0.92250
C         15.71336        37.25165        -0.68190
C         14.49352        38.00914        -0.84703
C         15.72650        40.09797        -0.30621
C         14.52288        39.41398        -0.70265
C         15.68545        41.49472        -0.00283
C         14.55456        42.24698        -0.34388
C         15.69568        44.40643        -0.02659
C         14.36829        43.66895         0.18775
C         15.73570        45.92757         0.06100
C         14.42371        46.51770         0.62438
C         15.74397        48.67970         0.61414
C         14.52518        48.01863         0.56604
C         15.78756        50.11618         0.69256
C         18.37211        11.06917         3.13167
C         18.35590        12.44394         2.81067
C         17.14232        13.16106         2.72916
C         18.33565        15.10782         1.83619
C         17.10795        14.51500         2.30970
C         18.31234        16.40431         1.25291
C         17.16352        17.19440         1.31359
C         18.30295        18.98674        -0.01835
C         17.12066        18.49085         0.67938
C         18.25933        20.26579        -0.60723
C         16.87643        20.78408        -0.96379
C         18.18884        23.00406        -1.38988
C         16.93880        22.17834        -1.69398
C         18.19554        24.41600        -1.52552
C         16.93477        25.13880        -1.68055
C         18.17791        27.25873        -1.49545
C         16.91633        26.53637        -1.69575
C         18.18184        28.73675        -1.39195
C         16.85990        29.42991        -1.31067
C         18.17600        31.62564        -1.43633
C         16.87447        30.93000        -1.33024
C         18.17492        33.01069        -1.13557
C         16.92813        33.73813        -1.14288
C         18.11661        35.73823        -0.29581
C         16.90041        35.09107        -0.82810
C         18.15530        37.20769        -0.22347
C         16.95636        37.94368        -0.36516
C         18.15420        40.06212         0.16735
C         16.93806        39.36351        -0.15805
C         18.18664        41.44437         0.34729
C         16.88854        42.18334         0.60576
C         18.23129        44.36430         0.42297
C         16.95688        43.63811         0.16468
C         18.24095        45.75243         0.55933
C         16.95222        46.47453         0.84979
C         18.22542        48.64634         0.62361
C         17.00619        47.96879         0.65903
C         18.28332        50.14246         0.25370
C         16.95614        50.86895         0.65797
C         17.82452        53.22655         0.89749
C         16.83149        52.23545         1.04641
C         18.03593        54.44219         1.54395
C         20.74794         6.68756         3.25709
C         20.69812         8.10978         3.55184
C         19.51956         8.93678         3.36169
C         20.85735        11.04101         3.19150
C         19.57599        10.33028         3.25013
C         20.87039        12.46568         2.85802
C         19.60885        13.12648         2.56630
C         20.81579        15.19444         1.87754
C         19.56799        14.41921         2.02732
C         20.82172        16.37432         0.98649
C         19.49999        16.82946         0.43104
C         20.72952        18.89813        -0.33376
C         19.51942        18.28586         0.06620
C         20.69763        20.22259        -0.81592
C         19.46120        20.90502        -0.97747
C         20.66858        23.02563        -1.47185
C         19.42111        22.31522        -1.33637
C         20.63631        24.44956        -1.69317
C         19.42676        25.12479        -1.67139
C         20.69789        27.33239        -1.45026
C         19.44384        26.60309        -2.00045
C         20.68484        28.80323        -1.83953
C         19.32961        29.47965        -2.12093
C         20.58583        31.67122        -1.76064
C         19.37002        30.95367        -1.71465
C         20.63421        33.01344        -1.32235
C         19.42488        33.64250        -0.91277
C         20.75635        35.66247        -0.02963
C         19.42673        34.96575        -0.28181
C         20.65446        37.18095        -0.09939
C         19.41945        37.84306        -0.01411
C         20.70433        40.02273         0.43917
C         19.38689        39.27342         0.33800
C         20.66198        41.49272         0.38196
C         19.43243        42.17591         0.41985
C         20.67690        44.32812         0.61612
C         19.44103        43.62035         0.45637
C         20.69142        45.75811         0.73493
C         19.46646        46.47940         0.69069
C         20.74226        48.65221         0.53505
C         19.44244        47.91198         0.71233
C         20.70758        50.05458         1.08703
C         19.53798        50.78764         0.86614
C         20.69427        52.88895         1.53793
C         19.68606        52.18505         0.81941
C         20.56975        54.27912         1.80381
C         19.35346        55.04248         1.64407
C         20.60918        57.17671         2.07924
C         19.43181        56.44248         1.77062
C         20.57505        58.59638         1.84439
C         23.15173         3.81588         3.21925
C         21.95947         4.53664         3.25993
C         23.22778         6.63227         3.29230
C         21.96843         5.96285         3.29591
C         23.26305         8.11039         3.02155
C         22.05158         8.86844         3.54334
C         23.34420        11.01378         3.35779
C         22.03791        10.32680         3.29927
C         23.35260        12.51582         3.10783
C         22.07850        13.15470         2.73346
C         23.41459        15.26949         1.91342
C         22.10982        14.58161         2.33553
C         23.21700        15.98065         0.48460
C         21.98789        16.89378         0.48851
C         23.20528        18.86663        -0.40509
C         22.00475        18.19381        -0.17173
C         23.24394        20.26385        -0.75291
C         21.96718        20.85467        -1.32879
C         23.12954        23.12172        -1.20504
C         21.88732        22.35064        -1.33539
C         23.19851        24.45301        -1.85521
C         21.87428        25.17792        -2.06556
C         23.13334        27.31505        -1.99135
C         21.93754        26.63979        -1.97221
C         23.13439        28.79248        -1.54647
C         21.82568        29.50192        -1.96294
C         23.08656        31.73393        -2.35812
C         21.75068        30.96514        -2.42856
C         23.06372        33.27355        -2.13655
C         21.87567        33.79035        -1.32636
C         23.13940        35.85225        -0.77064
C         21.91332        35.06852        -0.81049
C         23.12563        37.18497        -0.41735
C         21.89470        37.91288        -0.12803
C         23.17516        40.05171         0.14038
C         21.93309        39.30134         0.07371
C         23.13085        41.46462         0.40547
C         21.90505        42.19455         0.46339
C         23.10848        44.24948         1.25852
C         21.88959        43.60141         0.65884
C         23.13707        45.75767         1.16653
C         21.94478        46.46974         0.94211
C         23.15431        48.58666         1.26000
C         21.96557        47.88932         0.95598
C         23.15220        50.01772         1.47473
C         21.92189        50.73260         1.42661
C         23.09836        52.78125         2.11546
C         21.89665        52.12435         1.77168
C         23.04663        54.17609         2.57458
C         21.70390        54.97119         2.44416
C         23.01995        57.03423         2.86281
C         21.76911        56.43998         2.50180
C         23.10157        58.39752         3.21570
C         21.42924        59.49303         2.49077
C         23.08747        61.31958         2.60090
C         21.86552        60.78817         2.13405
C         24.38179         4.46930         3.20292
C         25.70357         6.54908         3.15260
C         24.44913         5.89459         3.23507
C         25.83622         7.97414         3.42075
C         24.53969         8.78667         3.49046
C         25.82117        10.84882         3.01736
C         24.61444        10.24419         3.24606
C         25.89506        12.29814         2.69987
C         24.65168        13.14112         2.69504
C         25.77137        14.81311         1.25712
C         24.61445        14.34899         1.83952
C         25.77241        16.16376         0.71229
C         24.51396        16.73782         0.18487
C         25.72412        19.01168        -0.01858
C         24.50883        18.18284        -0.23405
C         25.68985        20.36424        -0.24829
C         24.43112        20.98123        -0.65375
C         25.66349        23.21949        -0.96270
C         24.40615        22.45706        -0.79639
C         25.65727        24.53926        -1.37931
C         24.43440        25.23201        -1.75496
C         25.67476        27.33868        -2.20959
C         24.38913        26.59967        -1.97583
C         25.58950        28.84109        -1.99988
C         24.40631        29.51312        -1.98079
C         25.63917        31.77359        -2.16084
C         24.38251        30.98500        -2.20698
C         25.59993        33.15083        -1.90606
C         24.39122        33.79364        -1.61178
C         25.70106        35.85726        -0.95417
C         24.42858        35.05485        -0.79083
C         25.67070        37.21036        -0.29349
C         24.38454        38.00312        -0.64564
C         25.66716        39.94678         0.60491
C         24.38805        39.36190         0.02394
C         25.68342        41.46105         0.51333
C         24.40087        42.21509         0.38652
C         25.63647        44.25103         1.35938
C         24.39774        43.72282         0.59867
C         25.62412        45.75178         1.33793
C         24.37878        46.44673         1.31508
C         25.61420        48.57552         1.59382
C         24.38137        47.87462         1.38503
C         25.61088        49.99911         1.82475
C         24.36634        50.69952         1.78340
C         25.56666        52.81733         2.29369
C         24.33834        52.10426         2.06033
C         25.53791        54.23326         2.50035
C         24.30599        54.93314         2.60847
C         25.51500        57.05953         2.91117
C         24.27734        56.32422         2.79854
C         25.50350        58.47661         3.03155
C         24.28809        59.18034         3.14138
C         24.18881        60.61397         3.08605
C         27.06667         8.71831         3.14685
C         28.30946        10.79572         2.69794
C         27.07351        10.08836         2.95820
C         28.33913        12.09050         2.19214
C         27.01119        12.65742         1.73648
C         28.23073        14.77106         1.21004
C         27.04171        14.12322         1.42265
C         28.20311        16.14234         0.67230
C         26.92852        16.87496         0.63981
C         28.21177        19.04356         0.37808
C         26.89844        18.38217         0.70249
C         28.26129        20.56686         0.30370
C         26.83465        21.24291         0.28072
C         28.15804        23.14479        -0.97607
C         26.90543        22.70014        -0.27164
C         28.13786        24.64270        -0.81634
C         26.89076        25.32320        -1.34027
C         28.13551        27.44505        -1.50796
C         26.88133        26.66119        -1.59809
C         28.14800        28.89186        -1.90026
C         26.86115        29.54461        -2.32376
C         28.21899        31.81781        -2.48903
C         26.88522        31.05386        -2.44356
C         28.11410        33.11855        -1.65274
C         26.90556        33.97268        -2.11045
C         28.15539        35.99858        -1.17620
C         26.87592        35.29639        -1.35308
C         28.19075        37.36193        -0.83201
C         26.90125        38.03854        -0.62438
C         28.22146        40.09189         0.09298
C         26.92063        39.43823        -0.10898
C         28.23640        41.44074         0.65552
C         26.94160        42.16369         0.92845
C         28.12834        44.37048         0.97057
C         26.94435        43.63052         0.94606
C         28.09361        45.77236         1.12777
C         26.84647        46.45481         1.34544
C         28.08377        48.55432         1.90771
C         26.82723        47.86792         1.56763
C         28.07561        50.00877         2.09791
C         26.83209        50.69849         2.08132
C         28.02241        52.85174         2.49639
C         26.80396        52.12611         2.28918
C         27.99550        54.22560         2.64179
C         26.76597        54.95511         2.64960
C         26.73455        56.34900         2.84127
C         29.53244        12.83282         1.98704
C         30.71496        14.91053         1.31605
C         29.52178        14.15239         1.48343
C         30.74230        16.24626         0.85445
C         29.46531        16.88341         0.44754
C         30.63927        19.03542        -0.02673
C         29.38784        18.35985         0.31370
C         30.58633        20.29451        -0.56033
C         29.22481        20.92877        -0.85207
C         30.64200        23.12718        -0.92532
C         29.30163        22.43215        -1.02069
C         30.61519        24.58110        -1.30701
C         29.41148        25.31984        -1.22810
C         30.63497        27.38470        -1.68401
C         29.40640        26.68575        -1.52753
C         30.65891        28.80623        -1.82212
C         29.45467        29.54902        -2.36313
C         30.54487        31.66858        -1.55426
C         29.44409        31.03126        -2.02608
C         30.57409        33.13275        -1.15182
C         29.43284        33.90395        -1.82142
C         30.60535        36.02940        -1.32619
C         29.39165        35.33257        -1.34620
C         30.64133        37.42588        -1.03112
C         29.40479        38.08887        -0.75732
C         30.67206        40.15756        -0.23472
C         29.42111        39.47841        -0.34324
C         30.71750        41.49244         0.49293
C         29.42758        42.29592         0.29387
C         30.66575        44.44252         0.65435
C         29.45566        43.63710         1.07066
C         30.59366        45.89896         0.53500
C         29.26462        46.63494         0.71686
C         30.63585        48.67093         1.53516
C         29.39299        47.86109         1.60846
C         30.53695        50.04206         1.95341
C         29.32712        50.68203         2.20904
C         29.35242        52.13729         2.62030
C         31.91750        16.98781         0.65699
C         33.09316        18.95470        -0.23957
C         31.90360        18.31220         0.12601
C         33.10989        20.25895        -0.81495
C         31.80882        20.90356        -1.12383
C         33.10913        23.05536        -1.89211
C         31.79373        22.34101        -1.53769
C         33.10353        24.53560        -1.56498
C         31.84451        25.24433        -1.47506
C         33.08228        27.37152        -1.36792
C         31.85636        26.66835        -1.53074
C         33.04177        28.77126        -1.27423
C         31.83720        29.48086        -1.51978
C         33.06217        31.70172        -1.05360
C         31.78973        30.93500        -1.24499
C         33.09256        33.17376        -1.27227
C         31.89850        33.83012        -1.39215
C         33.18046        36.02262        -1.59991
C         31.85990        35.28401        -1.62832
C         33.13606        37.51059        -1.39589
C         31.86889        38.16123        -1.00826
C         33.15957        40.21746        -0.41265
C         31.88758        39.51764        -0.58566
C         33.16051        41.68887        -0.24484
C         31.88157        42.36725         0.08891
C         33.13979        44.52244         0.49183
C         31.87160        43.80951         0.45200
C         33.13692        45.87821         0.82708
C         31.91453        46.67252         0.69921
C         31.82391        48.08086         1.15297
C         34.28561        20.99363        -0.90359
C         35.52081        23.07463        -1.28160
C         34.34807        22.37038        -1.31806
C         35.59072        24.48094        -1.83976
C         34.30012        25.21890        -1.54643
C         35.54317        27.30755        -1.11264
C         34.33295        26.64458        -1.30676
C         35.55286        28.73913        -0.78222
C         34.25791        29.50312        -0.89510
C         35.53132        31.66731        -0.57494
C         34.36157        30.96369        -1.28892
C         35.58806        33.14399        -0.94405
C         34.38095        33.86905        -1.21506
C         35.62929        35.98530        -0.96134
C         34.41916        35.27778        -1.27500
C         35.64668        37.40273        -0.82063
C         34.43340        38.20509        -1.04912
C         35.62463        40.25625        -0.21054
C         34.37165        39.57418        -0.50507
C         35.61405        41.64824         0.07268
C         34.42017        42.40661         0.05847
C         34.36471        43.76713         0.39065
C         36.82938        25.25545        -1.46412
C         38.03837        27.38533        -1.10641
C         36.81380        26.60817        -1.22476
C         38.05914        28.76167        -1.02264
C         36.81243        29.51828        -0.90820
C         38.05177        31.66414        -1.17174
C         36.80491        30.88298        -0.86040
C         38.02922        33.03494        -0.51889
C         36.79037        33.82516        -0.75879
C         38.04976        35.95362        -0.42519
C         36.83679        35.24955        -0.73468
C         38.02484        37.32661        -0.26582
C         36.82156        38.08302        -0.42116
C         36.80757        39.49520        -0.19380
C         39.30010        29.51378        -0.95303
C         40.55598        31.64759        -0.85814
C         39.32311        30.88198        -0.93550
C         40.56879        32.98425        -0.63245
C         39.32996        33.73470        -0.30889
C         39.39231        35.25422        -0.28663
O         22.15408        54.35853         3.70577
O         26.46440        21.36447         1.69451
O         26.80992        30.15686        -3.62631
O         26.68815        39.15779        -1.54567
O         25.65333        13.22799         3.78328
O         16.73018        30.17897        -0.05913
O         23.53609        23.11969         0.22707
O         31.29089        46.41949        -0.63887
O         28.11841        28.53493        -0.49154
O         23.83354        31.37942        -3.56829
O         28.84372        16.18244        -0.69408
O         33.91256        38.19079        -2.43553
O          8.36535        28.84698        -1.77761
O         22.57810        24.52372        -3.17080
O         23.36640        11.98626         4.46427
O         23.11960        28.76338        -0.14558
O         32.31638        31.25960         0.12382
O         10.09772        35.77021        -3.20955
O         18.52698        50.21266        -1.12142
O         18.59542        35.05115         0.92970
O         31.48147        21.33349        -2.54167
O         28.84741        47.77046         2.94453
O         34.76399        29.11580         0.42072
O         22.98451        14.97291        -0.41620
O         32.54742        35.65721        -2.86993
O         38.58769        33.13884         0.82027
O         10.63812        32.42932        -3.39980
O         25.23959        41.89257        -0.80644
O         19.05298        29.36666        -3.48030
O         21.36331        15.46343         3.25070
O         27.71280        41.54063         2.03522
O         18.39088        27.94561        -0.20028
O         21.50433         8.45033         4.77771
O         21.96055        59.00563         3.71853
O         32.29065        42.27202        -1.31589
O         16.43490        43.89721        -1.18775
O         18.85788        52.89709        -0.01621
O         12.99996        27.93679        -3.31663
O         27.02136        34.21647        -3.47742
O         25.12550         8.33961         4.70776
O         28.00512        24.67155         0.67188
O         12.70432        42.33836        -1.86424
O         13.36814        24.46557        -2.35827
O         17.07367        21.93174        -3.05524
O         24.69141        17.08870        -1.21967
O         30.38566        33.17663         0.29724
H         31.04611        32.53720         0.67396
O         15.88706        27.38429        -3.64463
H         15.00935        27.62842        -4.02433
O         23.26527         8.30009         1.56886
H         22.64964         7.64890         1.17079
O         15.92865        19.42447         3.29699
H         16.75366        18.89102         3.28964
O         26.65749        11.97151         0.49415
H         27.24576        12.30349        -0.21668
O         21.37015        30.93781        -3.81813
H         22.17276        30.73065        -4.34692
O         29.75110        34.02377        -3.21596
H         28.93025        34.36515        -3.65892
O         14.18570        43.48057         1.61118
H         14.11059        44.38500         2.01975
O         28.87656        47.16665        -0.58574
H         29.67395        47.11203        -1.16687
O         28.71987        20.36207        -2.07633
H         29.41701        20.47553        -2.76009
O         30.37403        52.85270         1.91401
H         30.15294        52.84308         0.96036
O         21.11594        35.38744         1.36395
H         20.26963        35.40191         1.87158
O         23.72090        16.30615         2.84318
H         22.90440        16.46572         3.37820
O         16.37454        19.85210        -1.94742
H         16.58990        20.29996        -2.81779
O         25.71999        39.57666         1.99636
H         25.68458        38.58725         2.04185
O         19.35240        16.08663        -0.83279
H         20.20694        16.14028        -1.31436
O         27.03393        23.57465         0.96565
H         25.72594        22.00837         1.76704
O         30.94084        23.09351         0.50879
H         30.16003        23.44532         0.99207
O         35.29902        31.67657         0.84835
H         35.13976        30.74107         1.12973
O         33.24360        22.98669        -3.34408
H         32.81837        22.13968        -3.62283
O         29.62334        43.38571         2.48819
H         28.90956        42.75553         2.75734
O         22.04106        20.52987        -2.77031
H         21.16673        20.72660        -3.17213
O         15.84005        46.43563        -1.27846
H         16.32114        45.76186        -1.81255
O         40.25631        35.70195        -1.34641
H         39.81044        35.53722        -2.20268
O         20.84325        48.85631        -0.91749
H         20.01132        49.36588        -1.19334
O         38.00058        31.95894        -2.61135
H         37.97713        31.10352        -3.09110
O         35.67975        24.32096        -3.29630
H         34.85783        23.84586        -3.58263
O         29.28382        42.58569        -1.10931
H         30.17192        42.69374        -1.51620
O         16.74623        42.22906         2.05364
H         16.71462        41.30835         2.38777
O         22.92116        33.87958        -3.44717
H         23.51653        33.39019        -4.05990
O         25.67987        36.99040         1.15003
H         25.26782        36.10082         1.31266
O         26.63893        18.64548         2.12826
H         26.53510        19.62482         2.23457
O         25.54261        43.83190         2.77397
H         26.35866        44.13442         3.22782
O         25.93107        27.22461        -3.65573
H         25.20015        27.67083        -4.13482
O         24.33167        38.24206        -2.07839
H         25.09183        38.82895        -2.31438
O         24.41123        44.33451        -0.70465
H         24.94057        43.75237        -1.29839
O         22.97770        43.89281         2.65800
H         23.85167        44.01072         3.10404
O         27.85161        32.74554        -0.29467
H         28.68361        32.82480         0.23980
O          7.46989        31.55157        -3.02924
H          8.12187        31.84291        -3.70269
O         16.75804        46.23318         2.29237
H         17.58981        46.48164         2.74936
O         29.52847        29.43645        -3.80377
H         29.00853        30.18323        -4.19259
O         34.62526        30.96461        -2.71244
H         34.71412        31.89388        -3.01475
O         24.51202        34.56085         0.62089
H         23.60065        34.33349         0.91548
O         20.81526        27.22581        -0.01963
H         21.62680        27.76390         0.22161
O         14.67692        22.35829        -2.53406
H         15.28902        22.12157        -3.28101
O         28.42784        32.07215        -3.88843
H         27.80017        32.82012        -4.12396
O         19.48026        26.71625        -3.43420
H         19.31362        27.67932        -3.68049
O         14.11944        34.86115         0.52133
H         14.17498        35.71815         0.99678
O         15.99895        33.37007        -3.27970
H         15.30174        32.91804        -3.80172
O         15.56641        23.71585         0.70255
H         15.22757        23.60250         1.61621
O         14.21492        46.16537         2.03325
H         15.03253        46.41536         2.53182
O         30.91354        41.17319         1.88959
H         30.09556        40.75566         2.23393
O         20.03156        39.50408         1.64471
O         28.93875        21.05724         1.47708
H         28.26112        21.18926         2.17925
H          5.10997        31.53071         0.12927
H          5.02245        33.90474        -0.48072
H          8.37825        27.83832         1.43159
H          6.36207        29.72850         0.72182
H          6.16932        35.92947        -0.98954
H          7.42095        38.07835        -1.28923
H         10.69491        23.66108         2.01980
H          9.34836        25.74427         1.53729
H          8.66755        40.13079        -1.18394
H          9.70694        41.99478        -0.38134
H         13.14247        19.63111         2.85467
H         12.07432        21.71914         2.54131
H         10.96234        44.49106         0.01011
H         12.35006        46.51576        -0.24826
H         15.01472        14.88421         2.77171
H         14.02285        17.20518         2.76878
H         13.59656        48.61105         0.56686
H         14.82359        50.64246         0.78402
H         17.41519        10.54227         3.26322
H         16.20460        12.65874         3.00950
H         15.91710        52.51448         1.59580
H         17.20321        54.96184         2.04025
H         19.81082         6.15550         3.03952
H         18.55550         8.43367         3.19313
H         18.51290        57.01918         1.58687
H         19.86738        58.96908         1.08909
H         23.12045         2.71750         3.19665
H         20.99579         4.00801         3.27011
H         23.25312        62.39215         2.40985
H         21.27511        61.37874         1.41886
H         25.31524         3.88973         3.17177
H         26.60426         5.96194         2.91986
H         26.45700        59.02433         3.01564
H         25.12100        61.18118         3.23119
H         27.99237         8.14547         2.98415
H         29.25535        10.27054         2.90384
H         28.94114        54.77004         2.78060
H         27.68159        56.89954         2.94336
H         30.49424        12.37475         2.26653
H         31.67183        14.42830         1.57162
H         31.45918        50.64087         2.00148
H         29.64910        52.17221         3.70733
H         32.89240        16.51410         0.85214
H         34.05490        18.45114        -0.05700
H         34.07437        46.38030         1.10938
H         32.75400        48.66906         1.19332
H         35.22358        20.52254        -0.56918
H         36.44868        22.57815        -0.95514
H         36.56363        42.14697         0.31948
H         35.30966        44.29799         0.58522
H         37.79507        24.73528        -1.56195
H         38.99342        26.84012        -1.15884
H         38.95312        37.85649        -0.00606
H         37.75891        39.99396         0.04466
H         40.24234        28.95000        -0.86878
H         41.50526        31.10784        -0.99947
H         41.51891        33.53812        -0.62725
H         39.87659        35.58316         0.66956
