         349
 CSIRO Nanostructure Databank - Neutral Graphene Oxide Data Set
C          1.79863         2.20201         2.43265
C          1.70784         3.61108         2.11198
C          2.96954         1.52663         2.29400
C          2.81016         4.35233         1.83330
C          1.65706         6.59300         2.09549
C          1.77160         7.93864         2.23257
C          2.69271         5.79425         1.35952
C          2.94295         8.66070         1.81612
C          1.78534        10.96670         2.11764
C          1.75577        12.27711         1.82017
C          3.00415        10.11955         2.01461
C          2.86470        13.05112         1.14008
C          2.26814        15.08263         2.60546
C          2.48576        16.42632         3.06938
C          3.18183        14.43226         1.79822
C          3.71217        17.04520         2.95998
C          3.97420        18.39646         3.37586
C          4.17502         2.21009         1.85863
C          4.18578         3.72767         1.98264
C          5.27215         1.50338         1.47385
C          5.21385         4.40005         1.10647
C          4.01069         6.52632         1.24598
C          4.05293         7.93962         1.29125
C          5.15941         5.75932         0.87213
C          5.26169         8.64123         0.83929
C          4.24991        10.82577         1.51030
C          4.11542        12.19095         0.98764
C          5.33500        10.01356         0.92730
C          5.16098        12.66261         0.21044
C          4.43443        15.12296         1.54097
C          4.88121        16.21024         2.49737
C          5.33117        14.75991         0.56140
C          6.04851        17.01579         1.96897
C          5.16964        19.02216         3.13063
C          6.24561        18.39043         2.39861
C          6.47432         2.16129         0.92259
C          6.40683         3.64060         0.68167
C          7.80527         1.55775         1.03423
C          7.71825         4.41195         0.73263
C          6.23428         6.41457         0.03672
C          6.36163         7.90053         0.23354
C          7.58995         5.75854         0.10292
C          7.46392         8.52451        -0.33209
C          6.63692        10.71297         0.63258
C          6.47501        12.14501         0.18915
C          7.43051        10.02558        -0.47493
C          7.63434        12.88443        -0.19539
C          6.72080        15.13318         0.55351
C          6.99135        16.41052         1.17491
C          7.72865        14.32068         0.01381
C          8.37036        16.99077         1.05518
C          7.36951        19.10218         1.98475
C          8.42268        18.48953         1.22443
C          8.93371         2.22835         0.59649
C          8.89553         3.61142         0.24933
C         10.25648         1.49988         0.56351
C          9.96479         4.25876        -0.43314
C          8.67947         6.37811        -0.49452
C          8.60880         7.80126        -0.83568
C          9.87529         5.63515        -0.76507
C          9.73734         8.46636        -1.37405
C          8.83372        10.63835        -0.56705
C          8.78509        12.15733        -0.66114
C          9.64846         9.95635        -1.67442
C          9.92919        12.79498        -1.16881
C          9.05162        14.96838        -0.17078
C          9.02607        16.48903        -0.22749
C         10.13286        14.23531        -0.89079
C         10.39379        17.09086        -0.40224
C          9.55292        19.13579         0.77472
C         10.59752        18.44211         0.03598
C         11.24621         2.10364        -0.41198
C         11.13109         3.48999        -0.80469
C         12.27261         1.33595        -0.87691
C         12.22202         4.10272        -1.47254
C         10.82008         6.25496        -1.76315
C         10.94811         7.76496        -1.63299
C         12.14210         5.51783        -1.88914
C         12.17396         8.45830        -1.83926
C         10.98713        10.64821        -1.80629
C         11.01094        12.07068        -1.73505
C         12.16166         9.89490        -1.91525
C         12.19678        12.81130        -2.23690
C         11.08302        15.05708        -1.74496
C         11.37182        16.40147        -1.10498
C         12.32362        14.27589        -2.14520
C         12.58048        17.05556        -1.45669
C         11.78638        19.08567        -0.31596
C         12.77489        18.43211        -1.10134
C         13.38989         1.88372        -1.72048
C         13.42568         3.39688        -1.69263
C         14.67808         1.26361        -1.26148
C         14.65416         4.09928        -1.86290
C         13.44742         6.27519        -2.03041
C         13.45691         7.75826        -1.87973
C         14.68534         5.49459        -1.86451
C         14.67528         8.42252        -1.76543
C         13.43374        10.64111        -1.78227
C         13.50764        12.03823        -2.30591
C         14.70353         9.89581        -1.57331
C         14.78924        12.77440        -2.39078
C         13.50688        14.91796        -2.48061
C         13.51707        16.38504        -2.30118
C         14.76566        14.16060        -2.70213
C         14.44173        17.21141        -2.92882
C         13.94417        19.11317        -1.54125
C         14.80120        18.50959        -2.46638
C         15.88718         1.90377        -1.36760
C         15.94679         3.29421        -1.99090
C         17.10776         1.23474        -1.03647
C         17.11897         4.03719        -1.32818
C         15.95604         6.24296        -1.95154
C         15.95358         7.72407        -1.80368
C         17.22678         5.47945        -1.77460
C         17.15427         8.39421        -1.74360
C         15.97907        10.67266        -1.72893
C         16.01241        12.05535        -2.25864
C         17.24124         9.87535        -1.77334
C         17.28023        12.65740        -2.49335
C         16.04785        14.76989        -2.95881
C         16.16807        16.11767        -3.40990
C         17.29439        14.07213        -2.78365
C         17.28917        16.91845        -3.19657
C         16.08026        19.08561        -2.84526
C         17.21184        18.37576        -3.16647
C         18.38786         1.83387        -1.13452
C         18.41660         3.27620        -1.53103
C         19.58163         1.13635        -0.95502
C         19.70600         4.02539        -1.52851
C         18.47656         6.21657        -1.41345
C         18.45498         7.70682        -1.51051
C         19.76435         5.50872        -1.53520
C         19.68112         8.35342        -2.02678
C         18.42952        10.48248        -2.39259
C         18.50388        11.87032        -2.56123
C         19.49742         9.55238        -2.67519
C         19.81619        12.57031        -2.82634
C         18.51626        14.80287        -2.85137
C         18.51848        16.22779        -2.91904
C         19.81296        14.07493        -2.88321
C         19.68022        16.99665        -2.64265
C         18.52844        19.11550        -3.33380
C         19.65095        18.41791        -2.60400
C         20.86939         1.82681        -0.75158
C         20.90301         3.33907        -0.97895
C         22.16901         1.16340        -0.72868
C         22.18934         4.04931        -1.07588
C         20.96329         6.18787        -1.57900
C         20.99402         7.62397        -2.03827
C         22.20412         5.47813        -1.31440
C         22.35114         8.34493        -2.13128
C         21.39029        10.65357        -2.76520
C         21.12399        11.93240        -2.40837
C         22.64260         9.88392        -2.42751
C         22.38597        12.74137        -2.12028
C         21.06723        14.84014        -2.50174
C         20.95181        16.33229        -2.33242
C         22.13937        14.16967        -1.73068
C         21.89010        17.03528        -1.45082
C         20.66915        19.11981        -1.97758
C         21.73941        18.44273        -1.28775
C         23.37445         1.89568        -0.59940
C         23.32921         3.35356        -0.72517
C         24.62083         1.26316        -0.41747
C         24.47934         4.13350        -0.27029
C         23.38979         6.20343        -1.08547
C         23.51651         7.63294        -1.46587
C         24.50142         5.58253        -0.45578
C         24.55511         8.42611        -0.72140
C         23.45519        10.59095        -1.34682
C         23.36379        12.02006        -1.23377
C         24.45245         9.90261        -0.68621
C         24.26350        12.76546        -0.46880
C         23.01475        14.86773        -0.91931
C         22.89534        16.31998        -0.76737
C         24.09621        14.16967        -0.22639
C         23.76445        17.01797         0.09527
C         22.66352        19.13306        -0.48663
C         23.68117        18.44082         0.21283
C         25.91684         2.02727        -0.52006
C         25.77145         3.42980         0.02265
C         27.15620         1.38334         0.04596
C         26.96286         4.25512         0.27325
C         25.59730         6.30639         0.08581
C         25.33649         7.76409         0.40964
C         26.77963         5.65131         0.47474
C         26.56987         8.55550         0.81948
C         25.59942        10.62068        -0.14124
C         25.50991        12.13649        -0.00934
C         26.60689         9.90356         0.66281
C         26.38791        12.83307         0.94853
C         24.96533        14.83182         0.67263
C         24.69221        16.26491         0.95798
C         26.07016        14.16131         1.30193
C         25.68084        17.06637         1.78042
C         24.65654        19.16949         0.96150
C         25.71406        18.53931         1.62982
C         28.22624         2.14258         0.48838
C         28.15382         3.59313         0.60922
C         29.47933         1.50918         0.84407
C         29.26773         4.34155         1.13998
C         27.81750         6.36562         1.25346
C         27.64985         7.82824         1.53830
C         29.14057         5.72495         1.43784
C         28.80882         8.61009         2.15675
C         27.78244        10.73044         1.04505
C         27.58431        12.17006         1.36002
C         28.95475        10.03131         1.64421
C         28.58790        12.84152         2.07517
C         26.99530        14.86909         2.23319
C         26.88126        16.36911         2.35538
C         28.34208        14.22902         2.64159
C         28.09389        17.18140         2.62744
C         26.77812        19.24913         2.20836
C         27.96325        18.60206         2.67395
C         30.56052         2.23674         1.24825
C         30.48844         3.66453         1.41973
C         31.58674         4.41270         1.89823
C         30.25359         6.47018         1.91168
C         30.15728         7.90262         2.15177
C         31.47989         5.77667         2.11127
C         31.23449         8.69521         2.51820
C         30.00778        10.82320         2.32888
C         29.81925        12.23611         2.44388
C         31.13666        10.10376         2.71600
C         30.87609        13.10287         2.93956
C         29.55408        15.13359         2.32820
C         29.36046        16.57944         2.78417
C         30.79265        14.45063         2.87143
C         30.45335        17.38820         3.13368
C         29.08192        19.37997         3.07007
C         30.29844        18.76896         3.32894
O         16.77856         5.78119        -3.11325
O          4.05431        10.59045         2.95537
O         24.82699         3.63885         1.10435
O         27.15896         6.85204         2.52526
O         10.21065        14.45123         0.55620
O         28.94734        10.31704         0.21734
O          4.94352        13.88364        -0.46680
O         20.48368         9.96730        -3.56139
O         20.70088         2.82982         0.36291
O         19.91879        13.26258        -4.11002
O         13.95890        10.43402        -0.42215
O         15.07949        16.70203        -4.06921
O         24.44326        16.58299         2.37854
O         12.70243         5.78043        -3.21932
O         26.41031        15.47732         3.43268
O         23.42297        10.01877        -3.58224
O         16.82538        10.53446        -0.52702
O         19.13989         3.49492        -2.78103
O         21.57802        15.72748        -3.54273
O          6.24133         2.75177        -0.45201
O         12.69461        12.22918        -3.50055
O         21.79617         7.66514        -3.27447
O         24.83673         7.90452        -2.05172
O         18.46722         7.04085        -0.19216
O         26.24745        11.51375        -1.11175
O         10.07431         0.10477         0.31524
H          9.64292         0.00264        -0.55771
O          5.76546         6.22835        -1.35073
H          6.45333         6.59328        -1.94843
O         10.13941         6.07080        -3.05663
H         10.85241         6.06233        -3.73796
O         10.32043        15.33839        -2.97048
H         10.94397        15.70101        -3.63570
O          2.22469         5.71245        -0.04018
H          2.98645         5.42865        -0.59185
O         23.09851        12.82130        -3.39849
H         23.33971        11.88458        -3.65888
O          7.92761         4.64192         2.17884
H          8.71422         5.21908         2.27927
O          2.33723        13.35447        -0.17727
H          3.07174        13.76514        -0.69298
O          5.40359        15.55888         3.71257
H          4.65280        15.07957         4.12425
O          8.97741        10.10527        -2.96047
H          9.51544         9.64544        -3.63908
O          8.21555        16.88764        -1.35647
H          8.66289        16.55616        -2.16863
O          4.59715         4.00277         3.36618
H          3.97149         3.52813         3.95371
O          9.59570        10.32474         0.61987
H          9.09892        10.65395         1.40561
O         13.18337         1.49046        -3.12890
H         12.32160         1.86171        -3.41444
O         18.45315        20.47677        -2.93253
H         18.01039        20.98977        -3.63691
O         16.87031         4.09716         0.09511
H         16.93802         3.19021         0.46375
O          7.35919        10.69620         1.89959
H          6.73345        10.95930         2.60851
O         24.45671         7.77155         1.57223
H         24.94584         7.32553         2.30074
O         28.46338         8.79867         3.55886
H         28.07502         7.94746         3.86806
O         29.66129        15.20017         0.87940
H         30.49746        15.65697         0.65133
O          9.13909        16.43124         2.15592
H          8.67032        16.64228         2.99033
O         28.32977        14.03091         4.07212
H         27.60602        14.59834         4.43502
O          6.67728        10.32355        -1.67450
H          7.25931        10.14762        -2.45347
O         26.18405         2.21616        -1.96419
H         26.30565         1.32941        -2.36463
O         16.23777         3.12773        -3.38713
H         15.49226         2.63744        -3.79342
H          0.88094         1.67053         2.72042
H          0.70431         4.05719         2.05298
H          3.00901         0.43657         2.43823
H          0.75977         6.08237         2.47331
H          0.96895         8.49293         2.74042
H          0.86604        10.49513         2.49912
H          0.79553        12.80596         1.92300
H          1.30865        14.60760         2.85349
H          1.63647        16.96789         3.51291
H          3.16415        18.95329         3.87198
H          5.25420         0.40221         1.51985
H          5.30515        20.06840         3.44355
H          7.89661         0.51877         1.38471
H          7.44800        20.17270         2.23153
H         10.71466         1.57767         1.59122
H          9.69418        20.20875         0.97978
H         12.30422         0.27019        -0.60189
H         11.94607        20.13503        -0.02610
H         14.63792         0.24499        -0.84423
H         14.16611        20.11836        -1.15462
H         17.04405         0.18333        -0.71525
H         16.20099        20.16842        -2.67639
H         19.55335         0.04345        -0.82749
H         18.79306        19.08219        -4.43714
H         22.20794         0.06760        -0.81908
H         20.61733        20.21705        -1.93679
H         24.65477         0.16602        -0.33371
H         22.58950        20.22554        -0.38625
H         27.27760         0.29247        -0.05097
H         24.62629        20.26864         0.92783
H         29.55333         0.41570         0.75107
H         26.75610        20.34903         2.19246
H         31.50853         1.73142         1.48452
H         32.53764         3.90042         2.10418
H         32.36028         6.32278         2.47494
H         32.22401         8.24153         2.67448
H         32.01091        10.62284         3.13439
H         31.80285        12.64102         3.31047
H         31.66150        15.05233         3.17567
H         31.45267        16.95135         3.26173
H         28.97965        20.47208         3.13910
H         31.16504        19.37255         3.63233
