         294
 CSIRO Nanostructure Databank - Neutral Graphene Oxide Data Set
C          1.24103         2.30876         0.60037
C          1.19336         3.66074         0.28025
C          2.33370         1.44670         0.85011
C          2.35609         4.54726         0.05677
C          1.22919         6.68779         1.07285
C          1.27631         8.01743         1.23851
C          2.43547         5.94398         0.62125
C          2.56692         8.77638         1.43796
C          1.54317        11.06721         1.42191
C          1.39398        12.33741         0.99849
C          2.58818        10.20141         0.89381
C          2.28058        12.88913        -0.09176
C          1.13836        15.18673         0.05720
C          1.14302        16.53520         0.12685
C          2.37111        14.39945        -0.05287
C          2.44929        17.27861         0.26109
C          2.48460        18.70559        -0.26076
C          3.68018         1.84167         1.20960
C          3.64022         3.89156        -0.32122
C          4.80294         1.32534         0.58838
C          4.85372         4.30061         0.15151
C          3.78129         6.48792         1.04639
C          3.84444         8.00323         1.08121
C          5.00310         5.64733         0.79347
C          4.99327         8.65679         0.36688
C          3.62785        10.75528         0.17660
C          3.62726        12.18131        -0.11419
C          4.68569         9.88351        -0.49079
C          4.79560        12.83222        -0.44788
C          3.54983        15.03176        -0.26942
C          3.55517        16.52648        -0.47899
C          4.78396        14.30599        -0.74840
C          4.89152        17.15951        -0.21441
C          3.66625        19.32379        -0.43170
C          4.94308        18.65522         0.03776
C          6.13607         2.03660         0.61151
C          6.03274         3.41710        -0.11632
C          7.27768         1.19900        -0.01836
C          7.32928         4.07445        -0.40099
C          6.28502         6.35909         0.41426
C          6.22296         7.81607         0.04394
C          7.50122         5.51765         0.02735
C          7.18058         8.43464        -0.97981
C          5.97058        10.66407        -1.01993
C          6.05135        12.12937        -0.62626
C          7.27696         9.93482        -0.62294
C          7.27176        12.77216        -0.74636
C          6.08137        15.00002        -0.36293
C          6.05051        16.48101        -0.36612
C          7.35397        14.25588        -0.57413
C          7.29506        17.30399        -0.53627
C          6.31218        19.16574        -0.45669
C          7.38865        18.50130         0.36533
C          8.60633         1.95306        -0.07145
C          8.59926         3.33168        -0.27698
C          9.84042         1.28626         0.07228
C          9.83482         4.05466        -0.73646
C          8.58208         6.24273        -0.75344
C          8.53699         7.70840        -1.04578
C          9.86368         5.55243        -0.54959
C          9.82168         8.50339        -0.76745
C          8.53421        10.67972        -1.05718
C          8.53052        12.03893        -0.90836
C          9.79302         9.91112        -1.42120
C          9.81720        12.75960        -0.51405
C          8.59770        14.99089        -1.00838
C          8.57962        16.56867        -0.84810
C          9.85035        14.20393        -0.96690
C          9.79854        17.20303        -0.31179
C          8.50194        18.92099         0.97919
C          9.71169        18.01048         0.99040
C         11.09571         1.98233         0.04576
C         11.13739         3.39300        -0.38179
C         12.25086         1.43155         0.56292
C         12.31463         4.04958        -0.58207
C         11.08316         6.22641        -0.96857
C         11.07638         7.72238        -1.16122
C         12.38647         5.56416        -0.56846
C         12.39014         8.42755        -1.13584
C         11.09191        10.65973        -1.15221
C         11.09639        12.00894        -0.88128
C         12.37070         9.90863        -1.53366
C         12.34088        12.75493        -0.79213
C         11.07011        14.75204        -1.27566
C         11.04753        16.82922        -0.75661
C         12.34162        14.15430        -0.89125
C         12.29009        17.13785        -0.11579
C         10.97300        18.86986         1.18893
C         12.26949        18.16144         0.87573
C         13.47715         2.30207         0.69614
C         13.59607         3.21850        -0.53491
C         14.74954         1.56312         0.97505
C         14.87789         4.04233        -0.49017
C         13.56902         6.18869        -1.32932
C         13.55811         7.72139        -1.17489
C         14.88221         5.50279        -0.88481
C         14.84640         8.44044        -1.37464
C         13.65603        10.59331        -1.12665
C         13.61471        11.98766        -0.53595
C         14.83562         9.92273        -1.20914
C         14.81912        12.83176        -0.96794
C         13.50591        14.99617        -0.63289
C         13.49490        16.37230        -0.33406
C         14.77926        14.22117        -0.28966
C         14.76927        17.23006        -0.18390
C         13.43145        18.57819         1.50046
C         14.72110        18.21464         1.00701
C         15.95680         2.20329         0.86789
C         16.02613         3.51501         0.28625
C         17.22006         1.51979         1.38940
C         17.24768         4.23446         0.21509
C         16.00548         6.34482        -0.30699
C         16.14270         7.69816        -1.02583
C         17.28570         5.54729        -0.21000
C         17.32846         8.45702        -0.64099
C         16.18795        10.63396        -1.20003
C         16.12812        12.08938        -0.76763
C         17.26082         9.91988        -0.35936
C         17.29339        12.75183        -0.54846
C         16.04536        14.98957        -0.56937
C         16.06076        16.42729        -0.21603
C         17.32487        14.23196        -0.54949
C         17.26206        17.04365        -0.23335
C         15.79201        18.92692         1.53118
C         17.15736        18.85444         1.07343
C         18.47686         2.03297         0.67661
C         18.51323         3.60038         0.80234
C         19.75086         1.48570         1.29703
C         19.78177         4.14679         0.14084
C         18.55494         6.26286        -0.59195
C         18.50515         7.71779        -0.08161
C         19.84144         5.58712        -0.15548
C         19.79711         8.45325        -0.42926
C         18.62191        10.60616        -0.44875
C         18.64079        12.08801        -0.78085
C         19.78187         9.93426        -0.28899
C         19.86528        12.81403        -0.23154
C         18.50270        14.88920         0.13858
C         18.60884        16.37764        -0.22940
C         19.84293        14.21281        -0.07098
C         19.66427        17.00075         0.69181
C         18.30353        19.02174         1.79032
C         19.58087        18.31438         1.45077
C         20.92356         2.13785         1.22881
C         21.05801         3.42002         0.49103
C         22.26969         4.24191         0.59279
C         21.04926         6.24512        -0.16790
C         21.08766         7.70415        -0.49861
C         22.25649         5.55770         0.25086
C         22.33729         8.51246        -0.47783
C         21.08184        10.61086         0.09695
C         21.08859        12.11257        -0.13765
C         22.31139         9.84982        -0.35636
C         22.27130        12.85377         0.01747
C         21.03898        14.95819         0.10068
C         21.00867        16.39503         0.44143
C         22.25600        14.24591         0.07433
C         22.12588        17.11274         0.78030
C         20.85579        19.02496         1.64242
C         22.04002        18.45143         1.30259
O         20.45228         3.32669        -0.86743
O          2.22263         5.72147        -0.83523
O          6.81815         7.38796         1.30088
O         10.97988         6.85156        -2.31319
O         11.13478        16.00901        -1.89922
O         20.33636         8.04959        -1.73836
O         19.45450        16.98271         2.15018
O          4.45553         5.79474         2.14753
O          8.52283        15.91102        -2.13323
O          6.86014        14.55417         0.80939
O          6.49095         3.57627        -1.50853
O         15.66865         7.81024        -2.40852
O         16.80132        14.76863        -1.82481
O         18.55056         3.92987         2.15202
O          8.46133         6.75093        -2.14382
O         17.31524        18.44805        -0.26977
O          4.89676         8.71232         1.81423
O         15.31905         4.50377        -1.82701
O         18.82055        12.20302        -2.17741
O          6.80804        18.32974        -1.58617
O          9.76622        12.73877         0.95271
H          9.04599        13.34255         1.23827
O          6.55497         8.29006        -2.26987
H          7.03228         7.55286        -2.73514
O          4.01246         9.32741        -1.64485
H          4.27221         9.88782        -2.41725
O          7.38978         9.96616         0.82803
H          7.43897        10.90328         1.11738
O          8.18013         5.27860         1.30713
H          8.15460         6.12104         1.81951
O         12.39304         9.87811        -2.99245
H         11.62808         9.33024        -3.28782
O         19.15203        16.47029        -1.56585
H         18.56016        15.95260        -2.15914
O         17.32816         1.73965         2.78976
H         17.76573         2.63967         2.89477
O         13.68843        11.75632         0.91320
H         12.85413        11.31967         1.19038
O          5.88801        10.75692        -2.45982
H          6.24419         9.90964        -2.83211
O          9.71502         3.89918        -2.20796
H          9.75535         2.93761        -2.40281
O         18.34653         7.67254         1.36675
H         18.13103         8.58795         1.66907
O         18.49866         6.25597        -2.03681
H         19.22189         6.84824        -2.36841
O         14.68845        13.03525        -2.39200
H         15.45307        13.59810        -2.66801
O         14.75030        18.07488        -1.36955
H         15.60322        18.56813        -1.37726
O         14.80048        14.10749         1.15456
H         14.22525        13.34807         1.42058
O          9.89039         8.67676         0.66053
H          9.05552         9.11171         0.97198
O         13.40724         5.91903        -2.72450
H         14.16212         6.33565        -3.19679
O          3.81275         2.79204         2.18993
H          2.92949         3.04499         2.52528
O          2.59980         8.95025         2.88726
H          3.53779         9.13149         3.12751
O          9.64228        17.07337         2.09487
H          8.71647        16.76376         2.18139
O          3.29611        16.73407        -1.89623
H          3.95048        16.18453        -2.39148
O          5.00001        18.85216         1.48038
H          4.22949        18.35811         1.86168
O         13.64408         2.39126        -1.70775
H         14.02989         2.93779        -2.42917
O         15.62444         6.68300         1.05533
H         16.44217         6.98951         1.52036
O         16.64441        10.58229        -2.56365
H         16.13319        11.23851        -3.08315
O         13.25792         3.22736         1.82075
H         13.29237         2.71362         2.65567
O          1.63696        12.56825        -1.37017
H          1.50148        11.59661        -1.39213
O         12.57988         5.89735         0.83672
H         12.82700         5.08258         1.33874
O          4.76490        14.42666        -2.21509
H          4.02237        13.87648        -2.54724
O         18.37430         1.65788        -0.69542
H         19.18040         2.00396        -1.15472
O         16.88173        10.04375         1.06134
H         16.73259        10.99915         1.24595
O          6.54411         2.33939         1.95396
H          5.78279         2.75642         2.41604
O          6.91685         0.83116        -1.35347
H          6.73551         1.66683        -1.84671
O          2.77774        17.28132         1.68681
H          2.00455        17.63774         2.17232
O          3.55205         2.90995        -1.25146
H          2.61161         2.72069        -1.44513
O         18.15768        14.73024         1.53753
H         18.73865        15.30871         2.08521
O         21.09798        10.48330         1.56950
H         21.87169        10.98595         1.90265
O          9.69806         9.66530        -2.85414
H          9.67115        10.53175        -3.31316
O         10.89422        20.03180         0.34406
H         11.00429        19.74654        -0.58687
H          0.26428         1.79679         0.54741
H          0.20139         4.10079         0.10503
H          2.16841         0.38120         0.62726
H          0.25990         6.16928         1.02661
H          0.34937         8.57090         1.45337
H          0.87106        10.64988         2.18534
H          0.57594        12.96226         1.38516
H          0.18293        14.64297         0.01786
H          0.19560        17.09371         0.18519
H          1.54250        19.20282        -0.54122
H          4.64419         0.59875        -0.22167
H          3.70922        20.35548        -0.81490
H          7.40817         0.25565         0.56735
H          6.37454        20.25876        -0.66098
H          9.84432         0.21403         0.32088
H          8.58648        19.93480         1.39623
H         12.24883         0.41441         0.98418
H         10.99057        19.23768         2.24399
H         14.70431         0.53320         1.36319
H         13.36924        19.33046         2.30206
H         17.11410         0.41529         1.21544
H         15.58985        19.56589         2.40690
H         19.68729         0.52761         1.83616
H         18.23594        19.38066         2.82960
H         21.82321         1.72316         1.70984
H         23.18013         3.79024         1.01470
H         23.18026         6.14659         0.34526
H         23.28472         8.00512        -0.71787
H         23.25916        10.40398        -0.44009
H         23.23974        12.33725         0.09265
H         23.21220        14.77795         0.17029
H         23.12908        16.68251         0.65376
H         20.82346        20.06097         2.00940
H         22.97626        19.00896         1.44988
