         490
 CSIRO Nanostructure Databank - Neutral Graphene Oxide Data Set
C         37.83680        50.06871         1.56200
C         36.69384        50.81735         1.83700
C         37.74048        52.76992         0.86845
C         36.64661        52.17122         1.49800
C         40.25273        48.51286         0.84266
C         40.19696        49.90568         0.73261
C         38.94879        50.65808         0.93129
C         40.06481        52.60658        -0.18430
C         38.89155        52.02753         0.58180
C         40.07139        54.10789        -0.30091
C         42.68808        48.52891         0.73221
C         41.47818        47.83499         0.78717
C         42.66220        49.94827         0.63178
C         41.41577        50.62265         0.54445
C         42.53999        52.80030         0.34951
C         41.38300        52.04620         0.31530
C         42.45905        54.31696         0.42928
C         41.16121        54.85976        -0.11407
C         45.27209        45.86205         1.50655
C         44.09159        46.47891         1.36035
C         45.21850        48.62085         0.83248
C         43.99094        47.76797         0.56986
C         45.12891        50.06747         0.70839
C         43.88277        50.72218         0.58619
C         45.02415        52.90752         0.39041
C         43.82784        52.15443         0.47559
C         45.01223        54.43033         0.39572
C         43.70532        54.99034        -0.11352
C         44.89924        56.79952        -1.26252
C         43.69219        56.11643        -0.88020
C         47.97918        44.45348         1.46112
C         47.83038        45.85394         1.37635
C         46.52024        46.48052         0.91017
C         47.62880        48.80822         1.20749
C         46.41036        47.99503         1.09896
C         47.58188        50.18751         0.70671
C         46.32756        50.83337         0.61284
C         47.50205        52.97880         0.25078
C         46.27409        52.25043         0.41376
C         47.46457        54.37225        -0.11640
C         46.23195        55.02413        -0.27689
C         47.44347        56.85477        -1.53324
C         46.14107        56.28533        -0.95545
C         47.48445        58.31433        -1.90588
C         50.37377        44.65669         1.97159
C         49.23501        43.87914         1.65373
C         50.18583        46.06295         2.01930
C         48.97312        46.64526         1.56394
C         50.04735        48.72689         0.46463
C         48.95783        48.10525         1.25416
C         50.01952        50.15524         0.32027
C         48.78732        50.88076         0.48360
C         49.95661        53.00007        -0.03360
C         48.73802        52.29419         0.25103
C         49.95246        54.43181        -0.10682
C         48.70740        55.11338        -0.24445
C         49.53028        57.46911        -0.29618
C         48.58883        56.48491        -0.62923
C         49.71812        58.69265        -0.94533
C         48.59054        59.10619        -1.73945
C         52.55610        41.71557         1.44172
C         51.78061        42.55496         2.13768
C         52.26318        44.30709         0.08580
C         51.72994        44.04702         1.99566
C         52.22675        45.76677        -0.10384
C         51.07295        46.52365        -0.29293
C         52.32646        48.65399        -0.45583
C         51.09031        47.97659        -0.11768
C         52.36439        50.10633        -0.50834
C         51.15593        50.84947        -0.17303
C         52.34013        52.92031        -0.90778
C         51.12923        52.25452        -0.29964
C         52.39724        54.40249        -0.66716
C         51.23594        55.10076        -0.26968
C         52.42935        57.24177        -0.63363
C         51.38981        56.48466        -0.06027
C         52.34746        58.70186        -0.76804
C         51.00143        59.48700        -0.61327
C         52.23645        61.44272        -1.52987
C         51.08756        60.77019        -1.41011
C         54.94711        40.07946         0.30305
C         54.82599        41.42551         0.48094
C         53.47705        42.09580         0.28459
C         54.76335        44.29073         0.24163
C         53.54312        43.60695         0.16117
C         54.77445        45.77579         0.13607
C         53.48675        46.52549         0.04369
C         54.76354        48.52373        -0.87315
C         53.49907        47.90704        -0.48541
C         54.77765        50.05613        -1.04845
C         53.55925        50.77525        -0.70944
C         54.83262        52.95415        -1.01405
C         53.63023        52.25528        -0.42088
C         54.85019        54.33753        -1.07936
C         53.60665        55.09572        -0.86676
C         54.85266        57.23758        -1.23421
C         53.59529        56.51255        -0.94931
C         54.80796        58.73710        -1.20965
C         53.50533        59.40918        -0.97813
C         54.76476        61.58888        -1.41589
C         53.48770        60.92640        -0.85481
C         54.80008        63.06611        -1.12027
C         57.36038        40.05872         0.80802
C         56.17841        39.38487         0.53174
C         57.32339        41.49802         0.85173
C         56.00046        42.21934         0.97861
C         57.25540        44.29884         0.28910
C         56.01582        43.63445         0.43753
C         57.30266        45.67957        -0.27207
C         56.01506        46.42582        -0.38631
C         57.25469        48.60172        -0.54199
C         56.04571        47.89153        -0.55531
C         57.27030        50.05394        -0.77453
C         56.08352        50.73453        -0.95872
C         57.37047        52.92246        -1.28840
C         56.04470        52.17482        -1.26515
C         57.30800        54.36870        -1.08232
C         56.10532        55.05858        -1.12911
C         57.41607        57.29269        -0.73048
C         56.05691        56.50623        -0.66818
C         57.31929        58.79004        -1.07436
C         56.08146        59.47414        -0.99603
C         57.20246        61.64003        -0.71014
C         56.04113        60.89934        -0.97260
C         57.22936        63.05333        -0.77451
C         55.94949        63.73697        -0.89592
C         59.93496        37.30144         1.22703
C         58.71816        37.94643         1.02500
C         59.85086        40.08264         1.08661
C         58.64591        39.35197         0.95569
C         59.79528        41.56423         1.08684
C         58.50264        42.24474         0.81892
C         59.73230        44.32165         0.01243
C         58.47823        43.63735         0.51749
C         59.71933        45.82291         0.13487
C         58.53739        46.49461        -0.10877
C         59.68320        48.71524         0.04070
C         58.46580        47.92320        -0.20136
C         59.74170        50.11775        -0.38932
C         58.54133        50.78776        -0.72592
C         59.78577        52.91868        -0.69333
C         58.58675        52.18907        -0.90906
C         59.79270        54.36276        -0.88064
C         58.56352        55.06533        -1.02202
C         59.78537        56.99307        -1.66834
C         58.55266        56.44875        -1.29939
C         59.77098        59.12938        -1.41572
C         58.50763        59.57331        -0.97353
C         59.75560        61.66469        -0.43135
C         58.44792        60.90747        -0.27630
C         59.75186        63.04334        -0.59018
C         58.47485        63.74072        -0.78647
C         59.66981        65.74376        -1.46080
C         58.48901        65.11196        -1.16613
C         62.62515        36.05535         0.78114
C         62.42740        37.28594         1.65092
C         61.13419        38.02359         1.34172
C         62.37018        40.22491         1.49194
C         61.09313        39.42816         1.25577
C         62.35265        41.59058         0.85048
C         61.07523        42.32485         0.91348
C         62.20994        44.36703         0.14795
C         61.04022        43.71700         0.44043
C         62.23847        45.80105        -0.00968
C         61.01143        46.50213         0.52913
C         62.23387        48.71218        -0.07900
C         61.00608        48.00849         0.31439
C         62.23538        50.09443        -0.18572
C         60.97190        50.81606        -0.27859
C         62.23642        52.96001        -0.17016
C         60.97923        52.22359        -0.40682
C         62.23752        54.46721        -0.38505
C         60.99681        55.09875        -0.84164
C         62.22285        57.27353        -1.13803
C         61.02598        56.45361        -1.26088
C         62.20696        58.71922        -1.05556
C         61.02156        59.54269        -0.95578
C         62.31371        61.62861        -0.37138
C         61.01898        60.84161        -0.16954
C         62.31068        63.12901        -0.43724
C         61.00088        63.80571        -0.69832
C         62.94988        66.17220        -0.70125
C         60.91132        65.08221        -1.24107
C         63.04663        67.57372        -0.41790
C         64.95671        35.93444         1.43100
C         63.83907        35.38514         0.79322
C         64.97401        37.41221         1.71468
C         63.66320        38.10579         1.41731
C         64.79315        40.14144         0.68693
C         63.62208        39.44810         1.14129
C         64.75762        41.49482         0.35890
C         63.49184        42.20955         0.42428
C         64.70605        44.35140        -0.10071
C         63.43007        43.57184        -0.22569
C         64.68762        45.75894        -0.21016
C         63.42234        46.47216        -0.22714
C         64.73820        48.65794        -0.34368
C         63.42639        47.93844        -0.57564
C         64.71057        50.08185        -0.32507
C         63.50514        50.81333        -0.28956
C         64.70726        53.01260        -0.28646
C         63.52503        52.25185        -0.25575
C         64.70771        54.44052        -0.55156
C         63.50164        55.15499        -0.68160
C         64.69979        57.27185        -1.01401
C         63.45952        56.56590        -0.95253
C         64.66214        58.70149        -1.06475
C         63.46906        59.40287        -0.95364
C         64.78465        61.56584        -0.64127
C         63.48173        60.92639        -1.07395
C         64.81239        62.92793        -0.27782
C         63.67203        63.80922        -0.75319
C         64.73560        65.61209         0.91769
C         63.77022        65.21429        -0.18275
C         65.01269        67.11413         0.93996
C         64.07964        68.02203         0.36411
C         67.38302        33.04101         1.23426
C         66.22964        33.70897         1.53279
C         67.33936        35.80332         0.82434
C         66.23418        35.20147         1.73323
C         67.32836        37.31753         0.76171
C         66.15566        38.00806         0.95931
C         67.25089        40.08684         0.06210
C         65.96622        39.31573         0.23792
C         67.16662        41.48162        -0.19358
C         65.94805        42.18411        -0.08366
C         67.14243        44.36682        -0.16318
C         65.92522        43.63607        -0.18188
C         67.07546        45.73469         0.20775
C         65.90831        46.49964        -0.08423
C         67.18873        48.67175        -0.61685
C         65.94646        47.94267        -0.30886
C         67.22547        50.07215        -0.47398
C         65.98537        50.79202        -0.10683
C         67.31046        53.06715        -0.14686
C         65.98545        52.31315        -0.03909
C         67.19485        54.45652        -0.73350
C         65.95766        55.14489        -0.76866
C         67.18353        57.28178        -1.13650
C         65.93298        56.55421        -1.00564
C         67.17766        58.66759        -1.16728
C         65.92223        59.46317        -1.35703
C         67.18909        61.40581        -0.30253
C         65.96319        60.81233        -0.68416
C         67.15844        62.67882         0.31469
C         65.98336        63.46163         0.33085
C         67.09246        65.23652         1.69140
C         66.01021        64.78124         0.95202
C         67.05865        66.61416         2.20142
C         66.10158        67.57380         1.69985
C         67.28898        69.40010         2.87576
C         66.26803        68.95598         2.07277
C         69.88922        31.53882         0.81470
C         69.83085        32.96490         0.70818
C         68.63976        33.68210         0.98214
C         69.80317        35.83598         0.29662
C         68.71224        35.18629         1.11470
C         69.71573        37.21851        -0.01472
C         68.49659        37.96543         0.18935
C         69.60376        40.00839        -0.82982
C         68.44468        39.35873        -0.09637
C         69.66351        41.50463        -0.67699
C         68.36354        42.20159        -0.68309
C         69.65534        44.41741        -0.88481
C         68.35490        43.70877        -0.71328
C         69.68668        45.80447        -1.16789
C         68.46591        46.58751        -1.56844
C         69.58989        48.69607        -1.14826
C         68.39581        47.99768        -1.04545
C         69.59916        50.12424        -1.13999
C         68.40374        50.83239        -0.79490
C         69.61564        52.94217        -1.11817
C         68.42834        52.25199        -0.78066
C         69.64420        54.38616        -1.11069
C         68.41505        55.12988        -0.99427
C         69.67913        57.21826        -1.26498
C         68.43663        56.54695        -1.16768
C         69.74332        58.68684        -1.33231
C         68.42456        59.44859        -1.22583
C         69.67762        61.39237        -0.28397
C         68.44905        60.76285        -0.57907
C         69.68429        62.64012         0.43099
C         68.39368        63.14619         0.96364
C         69.69685        65.00498         2.05623
C         68.35009        64.40121         1.79150
C         69.82838        65.99190         3.03741
C         67.97799        67.09866         3.12275
C         69.43886        68.83476         4.09399
C         68.25924        68.47455         3.38305
C         69.45771        70.00858         4.89925
C         72.25155        31.55199         0.29983
C         71.06695        30.85172         0.61912
C         72.22509        32.92746         0.15486
C         71.03069        33.67191         0.33114
C         72.13041        35.78768        -0.44110
C         70.98760        35.09292         0.06917
C         72.10721        37.14302        -0.63223
C         70.91379        37.90970        -0.44396
C         72.10383        40.08196        -0.69682
C         70.91546        39.30987        -0.62153
C         72.08573        41.45741        -0.75579
C         70.85188        42.20713        -0.73377
C         72.08098        44.39445        -0.87836
C         70.86535        43.68168        -0.81051
C         72.10072        45.78125        -0.98417
C         70.90866        46.50020        -1.15327
C         71.91195        48.69088        -2.03620
C         70.94251        48.01111        -1.10574
C         71.86364        50.03687        -2.13644
C         70.77520        50.80961        -1.54706
C         72.00726        52.95398        -1.73238
C         70.79980        52.22494        -1.49245
C         72.05156        54.31347        -1.58301
C         70.86869        55.06430        -1.29410
C         72.12879        57.22355        -1.10823
C         70.90497        56.50436        -1.22815
C         72.15960        58.59346        -0.90001
C         70.98071        59.37339        -0.93912
C         72.12924        61.51161        -0.39044
C         70.93808        60.75252        -0.58333
C         72.09584        62.77832         0.14300
C         70.87670        63.34587         0.62526
C         72.04149        65.37753         1.58388
C         70.87949        64.59311         1.39638
C         72.03517        66.53795         2.36195
C         70.91065        66.86858         3.13752
C         71.59157        68.16342         5.21218
C         70.81972        68.17190         3.91548
C         71.45532        69.20981         6.06717
C         70.44355        70.20773         5.84578
O         60.25910        48.62568         1.41710
O         68.04967        42.92909        -1.93711
O         69.11856        59.31816        -2.52114
O         67.66717        46.18023        -2.39898
O         50.43975        57.14614         0.73115
O         62.00728        65.83095        -1.69135
O         62.53615        62.41381         0.83977
O         60.44802        42.18087         2.27288
O         55.71809        56.26980         0.69802
O         54.89795        57.95002        -2.49194
O         59.77572        58.16182        -2.42896
O         62.16442        53.89069         0.96484
O         68.22687        63.09631         2.44772
O         48.47471        48.81690         2.44834
O         56.60642        45.75903        -1.56453
O         56.73349        52.47682        -2.53128
O         54.69605        49.15925        -2.19770
O         54.22883        46.42759         1.34765
O         68.72177        66.18641         3.87721
O         65.98491        51.50199         1.19324
O         51.23806        43.58332        -0.52795
H         50.49096        44.19546        -0.72810
O         66.98151        35.39681        -0.52296
H         67.70384        35.67651        -1.12462
O         63.23607        43.32287        -1.67120
H         64.06780        42.92824        -2.01278
O         45.13721        54.81580         1.80821
H         44.23274        54.75789         2.20261
O         65.85944        59.76201        -2.81261
H         66.77535        59.95959        -3.11063
O         57.87077        57.41139         0.64539
H         57.14566        56.96408         1.18446
O         61.11130        46.28084         1.97543
H         60.63180        47.03251         2.39901
O         46.52053        46.26022        -0.53368
H         45.62391        46.53056        -0.86774
O         55.78205        42.38793         2.43659
H         56.57151        42.84412         2.79998
O         58.27805        60.67714         1.15684
H         59.13993        60.31763         1.48857
O         52.27953        52.69837        -2.34555
H         51.54424        53.23513        -2.70684
O         68.13225        46.27717         0.87418
H         67.93766        47.20340         1.12600
O         53.41784        61.25250         0.55119
H         52.56892        60.87779         0.89565
O         63.28354        47.95279        -2.05324
H         64.04627        47.45769        -2.42421
O         67.78070        53.30627         1.21952
H         67.37621        52.59902         1.77740
O         65.59123        38.92030        -1.14690
H         66.36404        38.45055        -1.53012
O         71.51058        69.14321         3.04914
H         71.57322        69.98552         3.54883
O         49.93409        45.92031        -0.77290
H         49.20816        46.56771        -0.88775
O         39.92334        52.09598        -1.55084
H         40.68172        52.43210        -2.07286
O         62.46276        40.44618         2.93338
H         61.72968        41.07015         3.15993
O         59.69966        44.02951        -1.44054
H         60.56677        44.28692        -1.82414
O         54.67439        61.43446        -2.86356
H         55.51451        61.74842        -3.25801
O         44.03706        47.37681        -0.85292
H         43.91253        48.19121        -1.38544
O         63.84860        63.89840        -2.18639
H         63.19183        64.54732        -2.52791
O         69.07643        35.48547         2.51481
H         69.93803        35.04869         2.68685
O         65.15433        37.66101         3.14435
H         65.78891        36.97050         3.47335
O         71.42926        48.29247         0.25721
H         71.53072        49.26568         0.33534
O         64.03088        65.33929         2.18194
H         64.67189        65.47744         2.91167
O         60.97813        60.45367         1.24008
H         61.39207        61.19956         1.73865
O         63.28247        61.18909        -2.49083
H         64.07204        60.82532        -2.95780
O         47.62484        56.11968        -2.80056
H         47.72076        55.17037        -2.57127
O         62.37805        36.86162         3.04396
H         63.23211        37.13055         3.45966
O         50.92037        59.86491         0.79428
H         50.84031        59.02366         1.30333
O         53.73166        52.39709         1.02235
H         53.92534        53.33849         1.22377
O         42.43325        54.62072         1.87359
H         41.69433        54.11218         2.27046
O         52.68549        44.65979         2.73874
H         52.57844        45.63978         2.72487
O         66.54379        35.44376         3.13336
H         67.51856        35.30477         3.25463
O         69.27552        39.79108        -2.26598
H         68.68731        40.52729        -2.54538
O         51.17820        46.85939         2.51260
H         50.87905        47.79303         2.54153
O         52.90922        41.52331        -0.91483
H         52.08015        42.01846        -1.11038
H         37.86748        49.01045         1.85641
H         35.83427        50.34266         2.33004
H         37.68693        53.83399         0.59957
H         35.74967        52.76556         1.71993
H         39.32940        47.92748         0.95005
H         39.15048        54.58409        -0.67191
H         41.47805        46.73635         0.81294
H         41.08449        55.95032        -0.24188
H         45.34350        44.91575         2.06400
H         43.17922        46.04148         1.79237
H         44.80816        57.74004        -1.82321
H         42.74049        56.55429        -1.21566
H         47.11391        43.80230         1.27757
H         46.63616        58.71168        -2.48278
H         49.33884        42.78611         1.59634
H         48.57234        60.11751        -2.17184
H         52.51337        40.63900         1.67246
H         51.12483        42.13881         2.92295
H         52.27678        62.38082        -2.10355
H         50.17289        61.16975        -1.87119
H         54.07550        39.49907        -0.03234
H         53.84979        63.61956        -1.15648
H         56.17348        38.29174         0.42516
H         55.90633        64.82346        -0.73265
H         59.95110        36.20640         1.32170
H         57.80482        37.34041         0.95402
H         59.68303        66.77332        -1.84070
H         57.54476        65.65132        -1.31248
H         61.78696        35.64783         0.19511
H         62.34086        68.26814        -0.89074
H         63.91809        34.39108         0.32311
H         64.20936        69.10352         0.50489
H         67.33127        31.94603         1.14307
H         65.29795        33.14685         1.68975
H         67.39018        70.47414         3.08604
H         65.55124        69.69733         1.69547
H         68.98552        30.97712         1.08575
H         68.58438        70.67848         4.89027
H         73.19184        31.00178         0.15860
H         71.09069        29.75800         0.72281
H         73.15981        33.44253        -0.10329
H         73.05698        35.24081        -0.65768
H         73.01382        37.64181        -1.00030
H         73.07963        39.57813        -0.64485
H         73.04585        41.98756        -0.78701
H         73.03995        43.86530        -0.80745
H         73.05886        46.31825        -0.95314
H         72.70978        48.11254        -2.52392
H         72.61444        50.56616        -2.74058
H         72.92520        52.41027        -1.99321
H         73.00242        54.83762        -1.74699
H         73.07704        56.67119        -1.06812
H         73.12439        59.07204        -0.68173
H         73.09691        61.08282        -0.68497
H         73.03767        63.33065         0.25918
H         72.96817        65.10973         1.05888
H         72.92295        67.18421         2.38670
H         72.33894        67.37755         5.39164
H         72.07784        69.28095         6.97076
H         70.37944        71.06444         6.53065
