         268
 CSIRO Nanostructure Databank - Neutral Graphene Oxide Data Set
C        -10.67991         0.58205         1.23727
C         -9.41441         1.36658         1.00071
C         -8.43911         0.61927         0.10973
C         -7.28589         1.38002        -0.46321
C         -5.95231         0.70925        -0.27130
C         -4.98600         1.47034         0.59149
C         -3.73300         0.76984         1.04415
C         -2.45204         1.53863         0.98594
C         -1.21156         0.74683         1.26684
C          0.07209         1.50224         1.40416
C          1.37266         0.73867         1.43730
C          2.66157         1.49867         1.39319
C          3.92068         0.71768         1.13929
C          5.01354         1.31385         0.30789
C          6.16794         0.47437        -0.26568
C          7.47064         1.27918        -0.10246
C          8.75776         0.66881         0.51950
C          9.97177         1.40748        -0.01366
C         11.09849         0.56733        -0.43086
C         -9.67120         2.79748         0.55403
C         -8.60963         3.56678        -0.16936
C         -7.31424         2.87125        -0.56325
C         -5.92478         3.60061        -0.54905
C         -5.02529         2.96191         0.57404
C         -3.77186         3.67272         1.16743
C         -2.45719         2.90182         0.99643
C         -1.19266         3.70191         1.37003
C          0.06864         2.94942         0.88146
C          1.36241         3.72250         1.17429
C          2.74586         3.02238         1.22830
C          3.51360         3.40240        -0.10557
C          4.88710         2.68480        -0.38218
C          6.11523         3.52539         0.06011
C          7.43368         2.76214        -0.02914
C          8.67985         3.49629         0.48259
C          9.92020         2.76783        -0.05054
C         -8.61239         5.04933        -0.20204
C         -7.44945         5.72039        -0.22310
C         -6.08014         5.13412        -0.41387
C         -5.01914         5.75438         0.50437
C         -3.69947         4.99478         0.42316
C         -2.40772         5.62415         0.02454
C         -1.20943         5.22430         0.88109
C          0.07824         5.78987         0.33649
C          1.36499         5.14047         0.70255
C          2.62285         5.71993         0.14555
C          3.70378         4.93410        -0.14960
C          4.91112         5.52315        -0.80414
C          6.25883         4.79110        -0.79714
C          7.43503         5.60586        -0.23295
C          8.56034         4.98689         0.18831
C         -6.99553         6.94550        -0.97378
C         -6.24090         7.90618        -0.01247
C         -4.88448         7.24405         0.21265
C         -3.62860         7.86059        -0.29092
C         -2.44495         6.98750        -0.73833
C         -1.12591         7.78473        -0.70939
C          0.08405         7.07063        -0.15028
C          1.34558         7.77332        -0.38001
C          2.59067         7.12339        -0.23380
C          3.75971         7.79703        -0.63804
C          4.95396         7.00871        -1.00063
C          6.31283         7.68426        -1.18650
C          7.30743         7.11971        -0.15188
C         -6.12374         9.36351        -0.38446
C         -4.96125         9.99030        -0.60625
C         -3.68197         9.25193        -0.91017
C         -2.38050         9.98229        -0.61660
C         -1.22598         9.28375        -0.48538
C         -0.05195         9.46760        -1.43024
C          1.29926         9.07900        -0.91702
C          2.47965         9.81185        -1.09858
C          3.72871         9.17577        -0.94170
C          5.00683         9.85266        -1.14461
C          6.18553         9.19416        -1.15377
C        -10.72591        -0.75432         1.08241
C         -9.59552        -1.51443         0.54944
C         -8.46161        -0.74393         0.03263
C         -7.26335        -1.49342        -0.45587
C         -5.95404        -0.77628        -0.22439
C         -4.95872        -1.47912         0.64739
C         -3.70625        -0.73247         1.06061
C         -2.41062        -1.46179         0.91149
C         -1.15543        -0.72107         1.01444
C          0.06667        -1.38402         1.00443
C          1.35335        -0.74177         1.20378
C          2.53969        -1.46410         1.24830
C          3.85051        -0.75406         1.56954
C          5.01924        -1.56090         1.03488
C          6.18342        -0.92373         0.34609
C          7.53158        -1.58627         0.42348
C          8.79706        -0.84359         0.25780
C         10.15041        -1.50557         0.64820
C         11.17706        -0.76955        -0.21543
C         -9.62399        -2.87528         0.50398
C         -8.59424        -3.73550        -0.19100
C         -7.27669        -2.99037        -0.47346
C         -5.94357        -3.75080        -0.28521
C         -4.97559        -2.96872         0.62702
C         -3.66100        -3.64403         0.88510
C         -2.43446        -2.82116         0.71212
C         -1.17052        -3.52713         0.41665
C          0.06322        -2.86919         0.93222
C          1.33278        -3.65336         0.94266
C          2.61229        -2.91241         1.04623
C          3.77736        -3.64588         1.03204
C          5.07030        -3.01543         1.52244
C          6.32590        -3.68460         0.95015
C          7.49704        -2.82071         1.30721
C          9.23976        -3.91945        -0.03664
C         10.07891        -3.04427         0.64056
C         -8.27871        -5.03700         0.55721
C         -7.32432        -5.92378        -0.20449
C         -6.19369        -5.12939         0.38230
C         -4.91716        -5.90817         0.64184
C         -3.61843        -5.13978         0.75637
C         -2.39183        -5.78874         0.24322
C         -1.14766        -4.98693         0.11778
C          0.14050        -5.73435         0.19231
C          1.34474        -5.07782         0.51196
C          2.54745        -5.79427         0.44644
C          3.83896        -5.02728         0.43191
C          5.04973        -5.84159         0.93922
C          6.36371        -5.12330         0.59074
C          7.65727        -5.87640         0.56570
C          8.90752        -5.29631         0.43897
C         -7.33859        -7.24296        -0.46086
C         -6.13837        -8.13314        -0.18491
C         -4.86661        -7.35084         0.20590
C         -3.54885        -7.94453        -0.16743
C         -2.38390        -7.08889        -0.20285
C         -1.10989        -7.50276        -0.90666
C          0.15094        -7.08101        -0.20664
C          1.33932        -7.85648        -0.14169
C          2.56532        -7.17866         0.12814
C          3.85412        -7.86326         0.05177
C          5.03668        -7.25339         0.41340
C          6.30261        -7.96038         0.42069
C          7.51575        -7.31322         0.61966
C         -5.87150        -9.22405        -1.18864
C         -4.67305        -9.84461        -1.22738
C         -3.48545        -9.27908        -0.59987
C         -2.24272       -10.01407        -0.64269
C         -1.13035        -9.70894         0.13208
C          0.21865       -10.12836        -0.25267
C          1.31711        -9.31109        -0.35679
C          2.60096        -9.95946        -0.72935
C          3.90036        -9.24153        -0.48223
C          5.14923       -10.00118        -0.28481
C          6.27228        -9.39055         0.15901
O          2.09582         1.10469         2.68168
O          3.31180        -9.37679        -1.83819
O         -0.69137         1.17298         2.58797
O          4.06225        -4.89698        -1.08034
O          3.97981        -0.76817         3.01490
H          3.32279        -0.11031         3.36307
O         -1.13190        -3.98675        -0.98439
O         -1.09303        -7.95152        -2.03912
O         -5.59012        -2.24532         1.72305
O         -7.33979        -2.23572        -1.72138
O          8.00831        -2.83654         2.41321
O          5.14456        -1.66704        -0.40542
O          1.31738         4.78278         2.16062
O         10.40949        -1.16576         2.00848
H          9.87774        -0.34902         2.25347
O         -3.03930         4.64154        -0.84553
O          6.84422         7.34062        -2.48430
H          6.12672         7.45556        -3.14301
O         -6.00907         6.02385        -1.64379
O          4.61813         6.10612        -2.12396
O         -0.59019         8.21196        -2.08791
O         -4.96426        -6.96861         1.63862
O         -9.17105        -4.12845        -1.45691
H         -9.04752        -3.37168        -2.07382
O          6.25418        -4.08239        -0.44148
O         -5.51224         5.63484         1.84815
H         -4.89766         6.12223         2.43792
O          2.65212         3.07067        -1.13304
O         -3.95685         7.89250         1.13505
O          7.70874         2.06833        -1.28997
O         -1.14557         3.69742         2.79335
H         -2.05523         3.86389         3.13417
O         -5.38264        -0.06380        -1.36524
O         -5.30776        -3.94015        -1.55266
H         -5.70770        -3.29625        -2.18420
O         -5.72701         2.22939         1.61280
O         -3.68462         9.15967        -2.35943
H         -3.12116         8.38804        -2.61970
O          5.08732         1.38837         1.75356
O          0.53821        -3.48002         2.18486
O         -6.99481         7.87599         1.22176
H         -6.44566         8.29930         1.91463
O         -5.23834         3.30352        -1.76056
H         -5.58057         3.89342        -2.46514
O         -3.87193         0.02493         2.29784
O         -3.52944        -4.48805         2.07495
O         -1.21392        -9.00419         1.28289
H         -2.15031        -8.79434         1.48830
O         -7.15094        -4.78445         1.49714
O          4.93581         2.51383        -1.79019
H          3.99091         2.62830        -2.09985
O          8.19971        -1.41750        -0.88900
O         -7.48595         2.03721        -1.74676
O          8.67891         0.77347         1.91217
O         -1.42626         7.36417         1.94563
H         -0.74064         7.67319         2.58674
O         -8.74376         1.50160         2.29127
H         -8.60804         0.60689         2.66886
O          6.79133         7.45428         1.14378
H          7.22296         6.87764         1.80841
O          3.40729        -3.71226        -1.55283
H          4.13091        -3.03005        -1.51094
O         -0.00592         2.86040        -0.55703
H         -0.93856         2.72920        -0.83143
O          8.77540        -3.64260        -1.27191
H          7.97902        -4.18097        -1.47965
O         -1.45027         5.93923         2.18924
O         -2.71505         6.69010        -2.12216
H         -1.93908         6.22709        -2.50165
O         -6.56010        -8.86073         1.00685
H         -6.36434        -8.26948         1.77255
O          5.14454        -3.15698         2.94806
H          4.64171        -2.40683         3.36051
O          8.72023         3.42581         1.92590
H          8.74186         2.45893         2.18205
O          5.92245         3.99114         1.39775
H          5.64878         3.23780         1.97362
O          5.97688         0.23860        -1.65556
H          6.26436         1.05320        -2.13654
O          6.61044         4.43440        -2.13397
H          6.21393         5.11397        -2.72635
O          4.97642        -5.94549         2.37735
H          5.03132        -5.04493         2.78347
O         -3.93240         3.82831         2.58434
H         -4.58641         3.14653         2.87406
O          3.46586         3.51092         2.34549
H          2.92044         4.23096         2.75277
O         -9.78631         3.00712        -0.85799
H         12.05641        -1.32385        -0.57673
H         11.91999         1.06809        -0.96865
H         10.78877         3.35187        -0.39472
H          9.40232         5.60759         0.54185
H          8.31915         7.59711        -0.29570
H          7.12119         9.76211        -1.27196
H          4.99319        10.95007        -1.23325
H          2.43705        10.84895        -1.46348
H         -0.06345        10.34889        -2.10933
H         -2.32923        11.04932        -0.89187
H         -4.95475        11.07778        -0.77980
H         -7.04923         9.95291        -0.28542
H         -7.68968         7.42685        -1.69757
H         -9.57426         5.56132        -0.34808
H        -10.40477         3.36275         1.17295
H        -11.55080         1.12371         1.63601
H        -11.64121        -1.31241         1.33084
H        -10.51953        -3.39781         0.87621
H         -9.16104        -5.50692         1.04838
H         -8.30244        -7.76274        -0.58050
H         -6.73041        -9.63835        -1.73664
H         -4.53501       -10.74787        -1.84055
H         -2.10747       -10.74123        -1.45643
H          0.32892       -11.17028        -0.59713
H          2.60699       -11.07316        -0.72323
H          5.15619       -11.06875        -0.54801
H          7.20629        -9.96025         0.27301
H          8.43657        -7.91699         0.62311
H          9.77205        -5.96751         0.58780
H         10.42193        -3.44163         1.61026
