         598
 CSIRO Nanostructure Databank - Neutral Graphene Oxide Data Set
C         22.92872        69.88194         0.39362
C         22.85867        71.22003        -0.05695
C         21.68960        71.97200        -0.01253
C         22.83382        74.02620        -0.67773
C         21.68008        73.34544        -0.43659
C         25.44145        65.76677         1.44566
C         25.39774        67.13357         1.13399
C         24.18285        67.83312         0.93290
C         25.38168        69.78881         0.00616
C         24.13891        69.15705         0.44377
C         25.36589        71.15611        -0.47970
C         24.05462        71.85955        -0.73734
C         25.35665        73.98362        -1.06310
C         24.15715        73.35618        -0.39625
C         28.05765        61.55496         2.16522
C         27.95147        63.00932         2.25943
C         26.74926        63.72784         1.80178
C         27.85285        66.00381         2.06971
C         26.67565        65.09871         1.73520
C         27.86610        67.19861         1.11290
C         26.66156        67.81484         0.83885
C         27.82264        69.71750        -0.30678
C         26.57960        69.10587         0.17931
C         27.79882        71.13809        -0.80093
C         26.52063        71.85243        -0.77043
C         27.77409        73.87966        -1.57908
C         26.53429        73.27143        -1.15187
C         30.62413        57.28824         2.52284
C         30.49781        58.69262         2.14012
C         29.29519        59.46794         2.34556
C         30.54854        61.61409         2.26995
C         29.28535        60.87794         2.25610
C         30.58225        63.09561         2.59878
C         29.21742        63.79186         2.48165
C         30.49459        65.91551         1.78371
C         29.21110        65.27226         2.20220
C         30.42728        67.28718         1.18953
C         29.14541        67.71488         0.48313
C         30.34098        69.74655        -0.43057
C         29.11688        69.24283         0.33679
C         30.32254        71.16714        -0.90671
C         29.06354        71.97018        -0.64460
C         30.26670        73.88812        -1.69381
C         29.03113        73.27844        -1.40182
C         33.08658        53.06052         2.35195
C         33.05020        54.45322         2.21317
C         31.90034        55.19558         2.54450
C         33.00857        57.34578         1.84852
C         31.79776        56.58790         2.29888
C         33.09389        58.76443         2.32441
C         31.82553        59.50141         2.01008
C         33.02951        61.65582         2.17918
C         31.75692        60.95583         2.19460
C         32.99159        63.05600         1.91636
C         31.74790        63.78129         1.89796
C         32.96787        65.81372         1.18992
C         31.74401        65.12654         1.57361
C         32.98008        67.16672         0.80151
C         31.70080        67.89820         0.72064
C         32.92996        69.82410        -0.36337
C         31.65494        69.05366        -0.21582
C         32.82209        71.30043        -0.54196
C         31.57820        71.93037        -0.98001
C         32.78071        73.96043        -1.62140
C         31.53930        73.27795        -1.38646
C         35.44772        48.62309         1.91277
C         35.41515        50.07236         2.18817
C         34.19303        50.86965         2.10708
C         35.49914        52.92391         1.72706
C         34.25107        52.26161         2.10168
C         35.40058        54.31879         1.22789
C         34.17882        55.13081         1.51252
C         35.57855        57.36291         1.69400
C         34.27030        56.64293         1.51471
C         35.69949        58.68573         2.13969
C         34.41559        59.47841         2.48096
C         35.37755        61.83518         2.57134
C         34.27830        60.98693         2.36842
C         35.41884        63.18012         2.13300
C         34.20076        63.77309         1.70779
C         35.46003        65.80415         1.04132
C         34.21531        65.12793         1.28817
C         35.43324        67.16275         0.69710
C         34.19959        67.85723         0.53184
C         35.41708        69.90238        -0.21952
C         34.19730        69.23549         0.12093
C         35.37563        71.27544        -0.75703
C         34.12498        72.06371        -0.71564
C         35.24087        73.93316        -1.88955
C         34.03174        73.36164        -1.41972
C         37.82560        44.36573         1.11625
C         37.70456        45.77328         1.02877
C         36.57590        46.48572         1.44659
C         37.90033        48.59590         1.50814
C         36.59591        47.92273         1.57394
C         37.99275        50.02329         1.87683
C         36.74116        50.83294         2.08516
C         37.84395        52.79370         0.83384
C         36.68231        52.23645         1.63599
C         37.90002        54.30947         0.79366
C         36.65009        55.06809         0.88151
C         38.08944        57.15012         1.19667
C         36.74211        56.62434         1.13066
C         38.29096        58.43426         1.95564
C         37.03574        59.28381         2.13524
C         38.45989        61.34045         1.91238
C         37.33327        60.61533         2.44393
C         38.53869        62.75285         1.82538
C         36.62574        63.93618         2.02415
C         37.98783        65.59870         0.71367
C         36.73391        65.10971         1.26986
C         37.83808        66.96461         0.10330
C         36.74955        67.89942         0.64470
C         37.85481        69.85743        -0.61218
C         36.63387        69.21872        -0.10251
C         37.71146        71.06966        -1.47118
C         36.48751        71.87786        -1.30086
C         37.67840        73.83875        -2.23869
C         36.46011        73.23139        -1.83185
C         40.11087        40.17030        -0.11961
C         40.14137        41.56410         0.12604
C         38.99510        42.26709         0.59497
C         40.34955        44.26426         1.00807
C         39.04299        43.62977         0.94554
C         40.57478        45.53488         1.58683
C         38.78397        46.61812         0.41385
C         40.37439        48.53688         1.12155
C         39.03994        47.92621         1.10447
C         40.43753        49.95244         1.06589
C         39.26048        50.73092         1.51159
C         40.39144        52.84084         0.64535
C         39.19458        52.20059         1.23629
C         40.23317        54.17547        -0.05350
C         39.06029        54.97190         0.47825
C         40.43826        57.01933         0.44969
C         39.17198        56.40765         0.66144
C         40.60904        58.39643         0.93163
C         39.45613        59.18790         1.36955
C         40.63039        61.31886         0.79251
C         39.51266        60.57641         1.31595
C         40.55586        62.68228         0.53512
C         39.40298        63.45882         0.93563
C         40.28212        65.45985        -0.28824
C         39.19487        64.85241         0.50389
C         40.22768        66.76989        -0.74359
C         39.00960        67.57972        -0.58451
C         40.13818        69.54170        -1.75186
C         39.11081        69.06192        -0.78926
C         40.23695        70.95972        -2.05781
C         38.94064        71.68871        -2.07982
C         40.14074        73.81983        -2.28790
C         38.90967        73.15611        -2.26120
C         42.36256        35.78581        -0.68916
C         41.97160        37.04376        -1.06129
C         41.08906        38.00430        -0.46313
C         42.39662        40.16024        -1.13989
C         41.19606        39.40411        -0.61956
C         42.50220        41.64098        -0.73597
C         41.36549        42.28494        -0.05135
C         42.74110        44.28345         0.34596
C         41.46688        43.61203         0.38982
C         42.81206        45.68337         0.65810
C         41.66645        46.35990         1.13234
C         42.83092        48.51865         0.83187
C         41.60732        47.80727         1.05762
C         42.85942        49.93619         0.67857
C         41.63252        50.62483         0.76617
C         42.86193        52.76696         0.23989
C         41.57062        52.00196         0.17984
C         42.76961        54.15896         0.00257
C         41.56448        54.87241        -0.05260
C         42.75060        56.98240        -0.44535
C         41.58876        56.30766        -0.04287
C         42.78836        58.44467        -0.34921
C         41.88639        59.11622         0.62306
C         43.15999        61.34312         0.24790
C         41.92669        60.61832         0.68843
C         43.03915        62.73482        -0.26283
C         41.66024        63.27507        -0.27201
C         42.69994        65.35352        -1.30250
C         41.48339        64.68158        -0.73721
C         42.33322        66.54848        -1.99730
C         41.19892        67.28971        -1.68180
C         42.90014        69.72201        -2.90390
C         41.01076        68.60713        -2.25315
C         42.75365        71.06285        -2.47864
C         41.42308        71.65831        -2.29424
C         42.53259        73.80410        -1.84057
C         41.37022        73.11397        -2.19606
C         44.76177        33.14452        -2.10262
C         43.63893        33.75654        -1.59547
C         44.90627        35.93916        -1.58936
C         43.64942        35.16130        -1.16576
C         44.93789        37.40704        -1.77240
C         43.76267        38.16585        -1.79117
C         44.95790        40.18857        -1.33661
C         43.71124        39.50777        -1.40867
C         45.02399        41.56620        -0.91869
C         43.84358        42.25836        -0.56424
C         45.19498        44.22017         0.22567
C         43.89580        43.57317        -0.02928
C         45.24791        45.68972         0.30689
C         44.04277        46.40546         0.50730
C         45.29938        48.53112         0.56894
C         44.06331        47.81948         0.64464
C         45.34977        49.97388         0.60332
C         44.10498        50.66013         0.51565
C         45.36541        52.78575         0.32537
C         44.10924        52.08333         0.33934
C         45.29484        54.31909         0.27356
C         44.03133        54.82345        -0.37655
C         45.26107        56.99120        -1.06135
C         43.98759        56.26783        -0.79121
C         45.17604        58.36032        -1.24673
C         44.01336        59.15283        -0.78468
C         45.52719        61.23010        -0.72222
C         44.31740        60.51499        -0.23654
C         45.48313        62.73706        -0.73259
C         44.13869        63.43441        -0.75054
C         45.24778        65.56123        -1.69714
C         43.98304        64.76961        -1.33353
C         45.29596        66.90068        -2.38544
C         44.21111        67.59323        -2.86700
C         45.32193        69.79674        -2.73829
C         44.15493        69.04322        -2.92730
C         45.22984        71.21011        -2.48808
C         43.94280        71.83969        -2.27212
C         44.82286        73.86130        -1.00982
C         43.80951        73.19138        -1.74726
C         45.98326        33.83045        -2.32164
C         47.28149        35.93525        -2.32413
C         46.07867        35.21937        -2.14742
C         47.39473        37.34264        -2.10338
C         46.16488        38.09686        -1.86538
C         47.41353        40.24240        -1.85262
C         46.15374        39.49660        -1.69378
C         47.49435        41.55531        -1.19826
C         46.33618        42.15697        -0.75759
C         47.69589        44.24529        -0.27654
C         46.44959        43.47523        -0.10182
C         47.70555        45.62817         0.01953
C         46.47568        46.36073         0.26999
C         47.73035        48.46278         0.63436
C         46.49922        47.78466         0.43620
C         47.77140        49.84082         0.92471
C         46.59791        50.68876         0.74189
C         47.70154        53.14806         1.09049
C         46.58667        52.14652         0.60873
C         47.79074        54.55966         0.38334
C         46.51870        55.00653        -0.29805
C         47.81777        56.79529        -1.37290
C         46.50870        56.20051        -1.01318
C         47.96940        58.00120        -2.07438
C         46.17653        59.18079        -1.88261
C         47.68982        61.13031        -2.17665
C         46.44974        60.49394        -1.63065
C         47.79277        62.62219        -1.97231
C         46.69485        63.40909        -1.28215
C         47.88371        65.49621        -2.08514
C         46.61018        64.87782        -1.60121
C         47.88067        66.92332        -2.27588
C         46.59491        67.57782        -2.61643
C         47.89296        69.86950        -2.84643
C         46.60191        69.09407        -2.90885
C         47.79642        71.37576        -2.58707
C         46.43339        71.94170        -2.55340
C         47.32152        73.62751        -0.45210
C         46.19477        73.62302        -1.26062
C         48.62442        38.00301        -2.10973
C         49.99721        40.16701        -1.84279
C         48.71860        39.45907        -2.08507
C         50.04985        41.46072        -1.37663
C         48.83544        42.06563        -0.70257
C         50.11553        44.25553        -0.58677
C         48.88253        43.57104        -0.59533
C         50.15550        45.62130        -0.19811
C         48.94683        46.28821         0.10553
C         50.30418        48.31655         0.79221
C         48.95860        47.64119         0.68685
C         50.28576        49.76665         0.97423
C         49.08176        50.32449         1.31312
C         50.20200        52.83455         0.38903
C         49.08340        52.54018         1.11319
C         50.22234        54.13506        -0.28216
C         49.03820        54.86568        -0.41039
C         50.29072        56.82514        -1.24291
C         49.04948        56.16153        -1.01242
C         50.30559        58.19820        -1.63708
C         49.11015        58.83820        -2.00596
C         50.28565        61.11940        -2.21849
C         48.99813        60.31619        -2.34211
C         50.28267        62.59852        -2.04378
C         49.11255        63.31720        -1.99672
C         50.34178        65.47002        -2.41970
C         49.07295        64.76824        -2.11502
C         50.35617        66.97030        -2.38641
C         49.05625        67.66688        -2.29979
C         50.36908        69.66181        -2.63295
C         49.11111        69.08268        -2.53352
C         50.20039        71.77783        -2.09743
C         48.86074        72.15634        -1.87935
C         49.74918        73.63548        -0.15389
C         48.62556        73.13334        -0.85241
C         51.27382        42.20411        -1.33388
C         52.57386        44.25573        -0.87740
C         51.34257        43.54381        -0.92625
C         52.65404        45.59583        -0.46442
C         51.43645        46.30956        -0.08677
C         52.81256        48.30113         0.66578
C         51.50627        47.61858         0.33322
C         52.76837        49.81282         0.53119
C         51.55232        50.60826         1.01298
C         52.69835        52.65169         0.03828
C         51.38759        51.88556         0.11646
C         52.70186        54.03816        -0.26737
C         51.47926        54.75665        -0.55290
C         52.74986        56.84139        -0.86518
C         51.51707        56.13098        -0.92434
C         52.77172        58.26392        -1.05111
C         51.58491        58.92582        -1.64497
C         52.64724        61.19578        -1.15594
C         51.57614        60.41230        -1.86762
C         52.75942        62.64002        -1.39181
C         51.61374        63.28183        -2.05330
C         52.78757        65.52283        -1.59223
C         51.65166        64.77779        -2.17977
C         52.76640        66.95606        -1.56900
C         51.59839        67.68809        -2.01474
C         52.74623        69.93039        -1.76592
C         51.57043        69.07136        -2.10920
C         52.61404        71.42154        -1.41448
C         51.28284        72.10572        -1.27572
C         52.18376        73.78739         0.30228
C         51.06331        73.16068        -0.34402
C         53.88150        46.30787        -0.45428
C         55.16281        48.38294        -0.17385
C         53.97995        47.65110        -0.04215
C         55.19086        49.79119         0.04136
C         53.92244        50.49488         0.25641
C         55.15713        52.64071         0.07412
C         53.91745        51.95255         0.14648
C         55.16435        54.05410        -0.05578
C         53.93548        54.74263        -0.27088
C         55.16332        56.86091        -0.35422
C         53.95314        56.15853        -0.48943
C         55.19246        58.29885        -0.63232
C         53.92916        58.99442        -0.86173
C         55.11449        61.24350        -0.46995
C         53.88475        60.46082        -0.70513
C         55.07519        62.65882        -0.52292
C         53.89544        63.35315        -1.02613
C         55.06296        65.52731        -0.67620
C         53.91242        64.80892        -1.12303
C         55.04275        66.95849        -0.67312
C         53.89032        67.67375        -1.11336
C         54.93206        69.86716        -0.33760
C         53.93866        69.16334        -1.19976
C         54.86116        71.22851        -0.09494
C         53.73201        72.04656        -0.60689
C         54.60713        74.01731         0.63350
C         53.46961        73.30705         0.15027
C         56.38726        50.50517         0.03560
C         57.61476        52.65071         0.22747
C         56.41564        51.93343         0.13121
C         57.63166        54.07907         0.24607
C         56.39462        54.76909         0.03554
C         57.55828        56.92112         0.27487
C         56.38287        56.19176        -0.02380
C         57.42627        58.38275         0.60119
C         56.40054        59.09705        -0.24385
C         57.44610        61.27220         0.32408
C         56.30253        60.57252        -0.10234
C         57.42351        62.71282         0.30462
C         56.24596        63.39260        -0.16519
C         57.42175        65.54650         0.06707
C         56.23939        64.82290        -0.24485
C         57.40571        66.97551         0.03465
C         56.19757        67.68033        -0.25388
C         57.21752        69.74966         0.54127
C         56.10805        69.09565         0.01630
C         57.08706        71.06239         1.16290
C         55.82903        71.90756         0.80900
C         56.98907        74.25146         1.03909
C         55.84875        73.41314         0.84731
C         58.81265        54.83365         0.44446
C         59.96379        57.02639         0.80924
C         58.78615        56.25030         0.51495
C         59.95751        58.42938         0.87073
C         58.71620        59.14774         0.64381
C         59.81213        61.25910         1.19183
C         58.65228        60.52731         0.65037
C         59.72970        62.75075         1.27320
C         58.57683        63.45718         0.66828
C         59.81888        65.61982         0.69133
C         58.61657        64.86767         0.48461
C         59.82582        67.01468         0.50896
C         58.61226        67.68787         0.25863
C         59.76485        69.91229         0.78494
C         58.54854        69.15429         0.33894
C         59.56266        71.15447         1.55297
C         58.29237        71.67598         1.72527
C         59.45205        74.54019         1.54631
C         58.20275        73.91598         1.67580
C         61.15030        59.18187         1.10450
C         62.29260        61.34319         1.48380
C         61.13026        60.57737         1.25835
C         62.28790        62.76061         1.61124
C         60.99877        63.49436         1.55415
C         62.33566        65.62677         1.24093
C         61.03012        64.96839         1.23992
C         62.40629        67.05809         0.96133
C         61.09668        67.78995         0.60768
C         62.14527        69.89599         1.46652
C         61.04021        69.20533         0.99190
C         62.01675        71.28408         1.89555
C         60.71754        71.77157         2.11498
C         61.97361        74.33206         1.79833
C         60.66241        73.98536         2.07033
C         63.45269        63.50474         1.80794
C         64.65688        65.68983         2.00115
C         63.47892        64.94348         1.71991
C         64.66511        67.11350         2.00870
C         63.50455        67.82720         1.55458
C         64.51416        69.97573         2.19159
C         63.40656        69.22140         1.70102
C         64.42807        71.39925         2.32747
C         63.17203        72.08215         2.17608
C         64.33931        74.21919         2.37826
C         63.13514        73.53236         2.17261
C         65.77919        67.86707         2.44025
C         66.87662        70.03829         2.87197
C         65.73844        69.28443         2.49801
C         66.83623        71.44769         2.91649
C         65.60488        72.13111         2.64488
C         66.74209        74.28052         2.97405
C         65.56117        73.55855         2.67462
C         67.99077        72.21651         3.23463
C         67.93392        73.60675         3.25680
O         46.62066        68.12134        -3.99059
O         48.05785        70.83120        -3.92918
O         52.00915        59.53816        -2.93787
O         60.79659        64.44747         2.63468
O         40.11597        52.97049         2.06918
O         37.99118        70.89893        -2.90145
O         36.18878        50.52620         3.38760
O         55.94149        71.21868         2.08076
O         30.07086        65.92701         3.20414
O         47.98343        40.13568        -3.19550
O         28.38357        63.49392         3.62876
O         45.96257        43.51592         1.29053
O         49.14385        51.51013         2.03950
O         38.95952        69.91537         0.38785
O         43.03136        66.91316        -3.13913
O         32.40699        68.95884        -1.44899
O         33.67069        58.95068         3.64363
O         42.83401        59.15508        -1.66031
O         27.81080        70.00915        -1.73626
O         47.40958        62.06357        -3.27230
O         36.47602        61.34973         3.25293
O         34.37914        54.51468         0.19773
O         36.45608        56.01721        -0.17952
O         37.74582        63.47926         2.71681
O         30.17310        70.05733        -1.84111
O         58.11218        72.77644         2.53555
O         50.39652        66.22332        -3.66738
O         46.07837        65.65498        -0.47860
O         52.79333        60.82590         0.25292
O         41.77528        58.44962         1.89195
O         46.92446        58.50782        -2.84704
O         37.88998        66.98233        -1.35765
O         38.97407        50.36035         2.91228
O         46.42211        73.30224        -2.64810
O         51.99655        63.92199        -3.32228
O         50.48894        70.93308        -3.18002
O         33.40855        57.21117         0.45356
O         42.60192        37.53581        -2.22231
O         59.39536        61.92508         2.44977
O         46.54512        63.22628         0.15801
O         44.70640        35.50764        -0.18616
O         42.12849        41.22008        -2.10077
O         42.89390        61.14153         1.67324
O         47.28359        53.35630         2.42586
O         60.53211        72.86457         2.94424
O         62.06544        67.44977        -0.42429
O         56.28555        58.65658        -1.61650
O         33.44931        72.02150         0.58204
O         31.17237        59.01126         0.84453
O         49.67023        47.65780         1.97628
O         41.13840        63.54737        -1.62813
O         41.80048        68.99869        -3.35814
O         43.95617        55.14745        -1.79191
O         39.30706        46.34897        -0.65841
O         53.64432        72.22718        -2.06374
O         45.48317        60.62079         0.62460
O         53.90854        69.65155        -2.58923
O         49.74488        60.70604        -3.51741
O         59.35734        69.94493        -0.63948
O         31.10346        68.26908         2.02188
O         39.88167        53.90795        -1.46291
H         39.83253        54.77054        -1.92971
O         37.62841        52.32162        -0.53060
H         38.25758        52.80327        -1.12136
O         48.91916        41.56881         0.67965
H         48.25519        42.05569         1.21543
O         53.02321        48.04347         2.09551
H         52.38258        48.59854         2.59284
O         51.82538        50.99447         2.37490
H         50.98393        51.34863         2.74897
O         27.55629        66.55737         3.37391
H         28.41469        66.84356         3.76371
O         38.66770        58.04126         3.33310
H         39.63955        57.90217         3.35562
O         23.81357        71.77903        -2.16935
H         23.81970        70.83316        -2.42459
O         24.39020        73.48695         1.04210
H         23.58507        73.16127         1.49873
O         39.81046        45.94589         2.62507
H         40.10692        46.82149         2.94932
O         29.12554        72.34524         0.77437
H         28.43715        73.02494         0.94148
O         29.23169        67.12152        -0.83989
H         28.71297        67.66821        -1.47011
O         30.94015        63.17387         4.00918
H         30.72285        64.08582         4.30838
O         56.88068        58.43601         1.96666
H         57.58697        58.15392         2.58588
O         47.95190        55.50563         1.48365
H         47.73084        54.96728         2.30536
O         37.13890        68.19990         2.01896
H         36.50159        68.84846         2.38472
O         41.35405        51.71050        -1.24319
H         41.14372        52.55690        -1.70546
O         45.15988        54.74131         1.65790
H         45.86868        54.24659         2.18129
O         29.11515        69.77931         1.67062
H         29.15787        70.76788         1.62022
O         51.12637        51.35156        -1.21721
H         51.11153        52.10394        -1.84579
H         22.81067        75.09220        -0.94919
H         25.33057        75.05232        -1.32657
H         27.72622        74.89822        -1.99463
H         30.26940        74.89237        -2.14455
H         32.74531        74.95579        -2.08945
H         35.21820        74.93105        -2.35209
H         37.67168        74.91390        -2.47320
H         40.16421        74.91957        -2.27745
H         42.45267        74.87317        -1.59505
H         44.51784        74.61606        -0.27089
H         47.23974        74.06835         0.55171
H         49.58865        74.44152         0.57665
H         52.00942        74.69822         0.89317
H         54.48986        75.08558         0.87045
H         56.88101        75.28907         0.68585
H         59.53098        75.41002         0.87964
H         62.17671        75.29321         1.30301
H         64.33556        75.31891         2.33985
H         66.71304        75.37939         2.98889
H         22.01423        69.40857         0.78487
H         20.75670        71.51817         0.35380
H         20.70902        73.85320        -0.53374
H         24.51036        65.17972         1.43964
H         23.23601        67.33319         1.18849
H         27.13446        60.96958         2.04339
H         25.85141        63.12938         1.58091
H         29.75257        56.77991         2.96069
H         28.36666        58.94494         2.61602
H         32.18680        52.55069         2.72842
H         31.02359        54.66604         2.94675
H         34.49071        48.07948         1.94576
H         33.21747        50.36236         2.14330
H         36.90762        43.78368         1.30352
H         35.68065        45.94469         1.79124
H         39.19549        39.62660         0.16058
H         38.02304        41.75085         0.58997
H         41.89776        35.30052         0.18251
H         40.26576        37.63386         0.16799
H         44.71077        32.07903        -2.37073
H         42.69036        33.20172        -1.54903
H         46.85947        33.26791        -2.67531
H         48.18287        35.38042        -2.62773
H         49.55547        37.41578        -2.10694
H         50.92368        39.67476        -2.18065
H         52.19491        41.70651        -1.67600
H         53.49924        43.72813        -1.15542
H         54.78178        45.80984        -0.84795
H         56.07906        47.88106        -0.52221
H         57.33991        49.96049        -0.04761
H         58.56616        52.10327         0.30272
H         59.76557        54.30659         0.60263
H         60.91138        56.49230         0.97479
H         62.10717        58.64541         1.19123
H         63.25933        60.82121         1.54937
H         64.40556        62.97857         1.96668
H         65.56136        65.15388         2.32392
H         66.70045        67.34698         2.74020
H         67.81694        69.51591         3.10209
H         68.93452        71.69836         3.45723
H         68.83812        74.18366         3.49659
