         261
 CSIRO Nanostructure Databank - Neutral Graphene Oxide Data Set
C        -11.21047         0.66709         0.92232
C        -10.16760         1.49590         0.27301
C         -9.01539         0.76543        -0.36443
C         -7.73992         1.50272        -0.69215
C         -6.51257         0.73003        -1.05941
C         -5.22522         1.45502        -1.35869
C         -3.92696         0.70450        -1.44369
C         -2.61431         1.41561        -1.27963
C         -1.38248         0.75505        -1.84107
C         -0.10216         1.55555        -1.89941
C          1.21813         0.78212        -2.02437
C          2.50992         1.51908        -1.66334
C          3.81266         0.74063        -1.48509
C          4.92201         1.33441        -0.64308
C          6.06255         0.48414        -0.15077
C          7.25979         1.19937         0.39810
C          8.58747         0.50187         0.42497
C          9.55710         0.94761         1.51320
C         10.93862         0.40894         1.21906
C         -9.98034         2.92749         0.57805
C         -8.82434         3.62615         0.26290
C         -7.54479         2.90150        -0.13448
C         -6.52035         3.77941        -0.87895
C         -5.24516         2.97471        -1.26801
C         -3.91900         3.63804        -1.12837
C         -2.62174         2.88012        -1.05383
C         -1.34413         3.69331        -1.02408
C         -0.06561         3.09202        -1.63415
C          1.15822         3.59543        -0.87815
C          2.47589         2.93041        -1.13735
C          3.67859         3.55978        -0.44935
C          4.73315         2.64052         0.10546
C          5.86583         3.23473         0.90108
C          7.24757         2.70925         0.58076
C          8.36843         3.18984         1.48894
C          9.47724         2.42371         1.77627
C         -8.72756         5.02196         0.50936
C         -7.49333         5.71836         0.43998
C         -6.26465         4.83927         0.25581
C         -4.95077         5.61994         0.18995
C         -3.80886         5.00019        -0.53486
C         -2.72029         5.80553        -1.18754
C         -1.37736         5.20251        -0.86636
C         -0.04986         5.93636        -0.92446
C          1.12962         5.05204        -0.53007
C          2.35487         5.74407        -0.01852
C          3.63770         4.97128         0.06381
C          4.68729         5.43967         1.09659
C          6.04222         4.74186         0.82340
C          7.19503         5.36503         1.59478
C          8.31952         4.55878         1.87062
C         -7.42166         7.08171         0.69022
C         -6.19041         7.87635         0.54514
C         -4.91038         7.12677         0.27969
C         -3.60211         7.81740         0.63179
C         -3.16666         6.91507        -2.12372
C         -1.07173         8.44121        -0.79864
C          0.08753         7.45420        -0.85323
C          1.44681         8.17766        -0.51854
C          2.41760         7.21308         0.17058
C          3.67810         7.84491         0.72694
C          4.76616         6.97414         1.26810
C          6.02564         7.58594         1.87067
C          7.26135         6.74550         1.74654
C         -6.06842         9.25118         1.08584
C         -4.88321         9.91298         1.12341
C         -3.61312         9.29309         0.77110
C         -2.41847         9.98130         0.74876
C         -1.13235         9.41775         0.34368
C          0.05856         9.92269         0.81054
C          1.35126         9.40413         0.40591
C          2.52821         9.97002         0.81741
C          3.87204         9.33325         0.45371
C          5.10204         9.84421         1.17972
C          6.10477         9.07678         1.63797
C        -11.25229        -0.67865         0.80475
C        -10.18957        -1.48493         0.15640
C         -8.98324        -0.74211        -0.34649
C         -7.65427        -1.39997        -0.10957
C         -6.39069        -0.67155        -0.52106
C         -5.07424        -1.40335        -0.54591
C         -3.81840        -0.73716        -1.03413
C         -2.56549        -1.49222        -1.36599
C         -1.38917        -0.76665        -1.98310
C         -0.09679        -1.51934        -2.19152
C          1.21093        -0.73245        -2.20764
C          2.53926        -1.50058        -2.08704
C          3.81795        -0.74239        -1.80585
C          5.14149        -1.49558        -1.59043
C          6.19537        -0.93404        -0.67191
C          7.49941        -1.65512        -0.51731
C          8.71493        -0.90683        -0.03651
C          9.87264        -1.73878         0.53625
C         11.07756        -0.84392         0.76196
C        -10.05338        -2.93551         0.47772
C         -8.88675        -3.61343         0.36691
C         -7.59617        -2.85312         0.27295
C         -6.28710        -3.59794         0.09119
C         -5.03440        -2.89749        -0.35959
C         -3.93743        -3.67942        -1.06400
C         -2.65044        -2.98576        -1.54960
C         -1.38564        -3.76371        -1.85069
C         -0.04682        -3.04715        -2.10948
C          1.27246        -3.79083        -2.10762
C          2.56037        -3.00516        -1.83032
C          3.89524        -3.71755        -1.70856
C          5.21492        -2.98188        -1.84850
C          6.54674        -3.74933        -1.68535
C          7.73652        -2.99462        -1.16858
C          8.92977        -3.72654        -0.65687
C         10.17948        -2.92132        -0.39914
C         -8.87102        -5.13468         0.47697
C         -7.47824        -5.63323         0.79231
C         -6.45849        -5.09616        -0.21072
C         -5.08467        -5.79955        -0.09104
C         -3.93104        -5.16544        -0.84934
C         -2.58489        -5.86639        -0.80908
C         -1.35944        -5.24188        -1.48438
C         -0.03121        -5.93156        -1.30290
C          1.28113        -5.26216        -1.71933
C          2.61391        -5.91339        -1.46856
C          3.93145        -5.21722        -1.98983
C          5.22386        -5.99937        -1.58582
C          6.61403        -5.30642        -1.76204
C          7.66468        -5.84472        -0.76618
C          8.87296        -5.06614        -0.50901
C         -7.19739        -6.43880         1.82865
C         -5.78809        -6.78952         2.24601
C         -4.80557        -6.66007         1.09151
C         -3.38953        -7.02901         1.38892
C         -2.34416        -6.82959         0.32327
C         -0.93283        -7.24334         0.69947
C          0.05387        -7.26153        -0.51019
C          1.36332        -7.40419         0.27922
C          2.66619        -6.93668        -0.36316
C          3.91396        -7.72521        -0.17616
C          5.17398        -7.32925        -0.88937
C          6.44220        -8.02954        -0.35195
C          7.60830        -7.09156        -0.24793
C         -5.65506        -8.17018         2.85901
C         -4.47309        -8.80830         2.90135
C         -3.23751        -8.23489         2.31668
C         -2.05262        -9.04935         2.11974
C         -0.93452        -8.57777         1.43654
C          0.25491        -9.31851         1.44441
C          1.45334        -8.80121         0.87679
C          2.60112        -9.54339         0.96010
C          3.91385        -9.15047         0.36676
C          5.06711        -9.24727         1.34306
C          6.23442        -8.69879         0.99360
O          0.16722         6.72870        -2.10365
O          6.44007        -1.81840         0.48138
O          1.29759         0.17212        -3.33465
O         -6.19870         3.99756         1.46397
O          3.70937         7.50428         2.14492
O          4.93464         1.45586        -2.08651
O          3.38110        -1.04146        -3.16138
O          1.85137        -6.25057        -2.64733
O         -5.60524         7.76114        -0.82560
O          7.16672        -5.70729        -2.96606
O         -7.55169        -1.81664         1.29616
O          6.28697         0.56238         1.28038
O         -7.45476         1.15559        -2.08531
O         -2.94202         5.80811        -2.69484
O        -10.09221         1.27672        -1.19338
O          5.47424        -2.02282        -2.90010
O         -4.37582        -4.60233        -2.10296
O          0.91884         3.97379         0.48129
O          2.68520         2.66947        -2.55174
O         -2.53152         1.93013         0.07597
O          4.80824         2.55673         1.57406
O          9.14856         0.20609        -0.87929
O         -5.48679        -0.64762         0.62932
O         -2.77374        -0.99862        -0.01880
O         -0.94207         1.36267        -3.07448
O         -1.37161         4.33790         0.28347
O          5.15940        -7.27707        -2.33286
O          6.58754         4.76080        -0.56221
O          4.19268         4.67886        -1.24194
O          1.14946        -6.46000         1.40693
O          1.87300         6.36970         1.22547
O          1.96903         8.55535        -1.75025
O         -5.20738        -7.23546        -0.18791
O         -2.33578        -3.42190        -2.89366
O         -3.86636         4.99099         0.91486
O          3.58550        -6.63367         0.74255
O         -4.68352         0.96495        -2.64170
O         -0.83178        -6.10665        -2.51912
O         -2.69415        -7.30209        -1.00669
O          3.13252        -3.33700        -0.51849
O         -4.59312         3.59408        -2.42128
O          7.42957         3.48319        -0.68349
O         -1.79578         8.60301        -1.76929
O          7.53804        -3.14566        -2.58675
O         -2.56516         7.19503         0.83836
O         -9.91900        -1.30612        -1.29293
O         -0.31599        -6.22229         1.53548
O         -2.92697        -6.83134         2.72062
O         -6.93119        -5.24196        -1.50038
O         -5.22938        -3.30701         1.03557
O          0.59894        -3.52108        -3.34458
O         -6.82244         2.68946         1.13747
O         -0.98676        -1.17169        -3.29853
O          4.16213       -10.05414        -0.73456
H          5.10101        -9.92909        -1.03398
O          4.29198         4.95881         2.39693
H          3.45464         5.43074         2.62326
O         10.66604        -2.39172        -1.63339
H         10.38216        -2.96994        -2.37087
O          9.07356         0.30154         2.74289
H          9.63235         0.60563         3.48902
O         -7.07182         4.38258        -2.02872
H         -6.39648         4.36667        -2.74508
O          4.18723         9.55611        -0.93017
H          3.39156         9.29579        -1.48874
O          0.00836         3.70249        -2.93853
H          0.74342         3.28784        -3.44475
O         -0.13888        -8.35988        -1.37150
H         -0.69194        -8.05140        -2.12849
O         -9.83527        -5.57156         1.42890
H         -9.67675        -5.10115         2.27247
O          5.89913         7.44047         3.33739
H          5.34954         6.64117         3.50722
O          3.91921        -5.25249        -3.41388
H          4.13763        -6.16448        -3.70737
O         -5.37394        -5.81071         3.23105
H         -5.94848        -5.89616         4.01904
O          6.74456        -9.08949        -1.30159
H          6.73143        -8.66782        -2.19301
O          9.45166        -2.30177         1.79186
H          9.17189        -1.55415         2.37643
H         12.07793        -1.25320         0.55613
H         11.81432         1.05194         1.39648
H         10.29262         2.88438         2.35893
H          9.17599         4.99689         2.40564
H          8.19242         7.17984         2.14611
H          6.99928         9.56732         2.05422
H          5.25325        10.93499         1.14840
H          2.50981        10.86972         1.45439
H          0.04641        10.73228         1.55980
H         -2.42388        11.04548         1.04342
H         -4.86356        10.96242         1.45528
H         -6.99045         9.76020         1.40256
H         -8.34669         7.61539         0.96144
H         -9.64323         5.58064         0.75752
H        -10.82975         3.47966         1.01113
H        -11.99284         1.18833         1.49438
H        -12.05687        -1.23252         1.31262
H        -10.98246        -3.50138         0.65303
H         -9.16137        -5.55971        -0.52028
H         -8.01789        -6.76381         2.49112
H         -6.54686        -8.63770         3.30380
H         -4.39458        -9.80829         3.35490
H         -2.03106       -10.06651         2.54129
H          0.28027       -10.29662         1.94861
H          2.54798       -10.53886         1.42933
H          4.93903        -9.76449         2.30528
H          7.10540        -8.76685         1.66323
H          8.45667        -7.44009         0.36418
H          9.74513        -5.61146        -0.11341
H         10.96076        -3.58137         0.07749
