         324
 CSIRO Nanostructure Databank - Neutral Graphene Oxide Data Set
C          1.48389         1.89366        -1.02779
C          1.42069         3.28906        -0.92100
C          2.62386         1.21989        -0.62173
C          2.48218         4.01417        -0.35726
C          1.33267         6.28905        -0.79486
C          1.32277         7.64972        -0.74824
C          2.32295         5.46808        -0.07259
C          2.32157         8.43403        -0.06480
C          1.14022        10.59437        -0.51594
C          1.16395        11.90794        -0.84024
C          2.32315         9.84390        -0.10180
C          2.43824        12.66721        -0.81684
C          1.37577        14.92924        -1.50043
C          1.40577        16.26448        -1.65997
C          2.58078        14.12887        -1.16845
C          2.67130        17.02993        -1.61938
C          2.65415        18.49346        -1.47716
C          3.73871         1.92856        -0.10185
C          3.63985         3.34029         0.10135
C          4.97463         1.23093         0.04745
C          4.78340         4.08048         0.68203
C          3.51661         6.22813         0.50491
C          3.45529         7.72740         0.53906
C          4.80029         5.54696         0.66117
C          4.77208         8.50622         0.69647
C          3.52253        10.57609         0.17224
C          3.47664        12.06122         0.07934
C          4.74496         9.94222         0.40310
C          4.68678        12.85119         0.43941
C          3.79683        14.87219        -0.70670
C          3.91602        16.29629        -1.10671
C          4.82803        14.25331        -0.04776
C          4.96157        17.11852        -0.49502
C          3.76964        19.18051        -1.12327
C          4.97115        18.51643        -0.64903
C          6.18399         1.90499         0.22928
C          6.16738         3.32049         0.65147
C          7.43230         1.26997         0.06957
C          7.38889         4.10059         0.43496
C          6.04903         6.30870         0.76047
C          6.04254         7.78583         0.55482
C          7.37250         5.57666         0.56560
C          7.20067         8.50646         0.33506
C          5.99043        10.64775         0.50276
C          5.93319        12.09484         0.80304
C          7.20996         9.96246         0.42893
C          7.22547        12.85451         0.91953
C          6.05493        14.97213         0.29974
C          5.99621        16.45560         0.28527
C          7.19498        14.33509         0.71661
C          7.28182        17.26851         0.56571
C          6.14011        19.27039        -0.34871
C          7.33092        18.65621         0.07468
C          8.64177         1.99965         0.11996
C          8.58795         3.45142         0.18345
C          9.88620         1.34803         0.09194
C          9.83063         4.21121         0.08761
C          8.44786         6.28256        -0.25492
C          8.44759         7.81327        -0.10029
C          9.79316         5.59438        -0.06020
C          9.72996         8.59606        -0.11984
C          8.46259        10.72111         0.42885
C          8.46115        12.10021         0.63636
C          9.73745        10.02341         0.30833
C          9.69466        12.88435         0.49700
C          8.44001        15.08290         1.02658
C          8.53377        16.52614         0.75088
C          9.75038        14.30403         0.96177
C          9.75673        17.16805         0.60595
C          8.58297        19.30059         0.06646
C          9.78614        18.60331         0.33834
C         11.10940         2.06887         0.14883
C         11.08636         3.50200         0.12769
C         12.34828         1.38821         0.20864
C         12.31813         4.21844         0.15458
C         11.05160         6.32244        -0.24793
C         11.04264         7.86030        -0.24099
C         12.31655         5.64056         0.06134
C         12.27091         8.50894         0.20940
C         10.94237        10.66653         0.49664
C         11.01971        12.13519         0.46698
C         12.19046         9.88999         0.69771
C         12.23422        12.88292         0.84509
C         11.01837        15.03726         0.75919
C         11.01253        16.43889         0.67542
C         12.24939        14.29005         0.78272
C         12.25511        17.15982         0.59095
C         11.01758        19.27685         0.30166
C         12.25569        18.59533         0.45019
C         13.57364         2.08264         0.25473
C         13.56156         3.52236         0.23026
C         14.81761         1.39723         0.28785
C         14.78430         4.24671         0.25427
C         13.51625         6.37046         0.16287
C         13.48137         7.81440         0.26751
C         14.76273         5.66947         0.27099
C         14.72689         8.53402         0.43875
C         13.48987        10.63582         0.93331
C         13.46676        12.13336         1.06270
C         14.74343         9.94272         0.58948
C         14.76348        12.89698         0.85546
C         13.50146        15.02511         0.73183
C         13.48565        16.46777         0.64175
C         14.71985        14.34989         0.63534
C         14.71925        17.18931         0.60501
C         13.47592        19.29593         0.41018
C         14.71988        18.62145         0.49648
C         16.04414         2.08474         0.26335
C         16.04052         3.54216         0.27054
C         17.27112         1.38514         0.17973
C         17.24234         4.24878         0.26324
C         15.99343         6.39845         0.34829
C         15.95594         7.81306         0.40594
C         17.24029         5.67568         0.29227
C         17.19683         8.58010         0.53627
C         15.95217        10.67710         0.34510
C         15.90187        12.15824         0.24989
C         17.16183        10.01306         0.20315
C         17.17468        12.96389         0.04742
C         15.97918        15.05291         0.58681
C         15.96776        16.50573         0.66995
C         17.17787        14.36391         0.46948
C         17.17671        17.21799         0.69357
C         15.95479        19.31229         0.40735
C         17.19238        18.63783         0.48033
C         18.51007         2.05458        -0.01817
C         18.59209         3.53842         0.37928
C         19.63853         1.40029        -0.45585
C         19.61236         4.26913        -0.56550
C         18.47690         6.37313         0.18959
C         18.52540         7.80979         0.43816
C         19.68131         5.72395        -0.18901
C         19.73994         8.53539         0.06597
C         18.40345        10.70914        -0.19866
C         18.46538        12.22644        -0.16121
C         19.69933         9.95816        -0.20989
C         19.75558        12.88188         0.18360
C         18.46550        14.96916         0.94871
C         18.45445        16.49840         0.87996
C         19.73767        14.30801         0.42712
C         19.71680        17.24405         0.58435
C         18.42744        19.33366         0.25504
C         19.66932        18.68133         0.20355
C         20.88708         2.09300        -0.95688
C         20.94434         3.56454        -0.60998
C         22.18706         1.38628        -0.67313
C         22.12590         4.22451        -0.54508
C         20.89273         6.42109        -0.21115
C         20.94698         7.84739        -0.05420
C         22.14301         5.70379        -0.46599
C         22.20115         8.56495         0.14908
C         21.02768        10.73805        -0.10179
C         20.95897        12.18579         0.19530
C         22.19425         9.95713         0.29851
C         22.20597        12.86271         0.50367
C         20.92793        15.00859         0.39767
C         20.89556        16.47101         0.03725
C         22.20198        14.32232         0.45477
C         22.16337        17.22857         0.24575
C         20.89285        19.30781        -0.10210
C         22.14859        18.60933        -0.00147
C         23.37429         2.04628        -0.65288
C         23.44771         3.54004        -0.85857
C         24.65416         1.36934        -0.63617
C         24.64059         4.14033        -0.11593
C         23.42729         6.41078        -0.09328
C         23.41647         7.82342         0.34634
C         24.55986         5.54168         0.32281
C         24.62904         8.46748         0.68291
C         23.34767        10.67223         0.85102
C         23.37114        12.14931         0.75532
C         24.63053         9.89668         1.08327
C         24.66916        12.80923         0.98477
C         23.38360        15.03752         0.52243
C         23.42137        16.53688         0.66824
C         24.67394        14.37091         0.78389
C         24.63837        17.13934         0.00665
C         23.40494        19.27642        -0.18416
C         24.61272        18.55659        -0.27876
C         25.85014         2.01292        -0.41735
C         25.82062         3.42739         0.04939
C         27.06840         1.27738        -0.81377
C         27.02828         4.16498         0.42946
C         25.85150         6.31387         0.64315
C         25.86193         7.77718         0.62160
C         27.08547         5.56975         0.46188
C         27.12161         8.47059         0.59960
C         25.96573        10.63861         1.27781
C         25.91314        12.08312         0.74783
C         27.16775         9.84957         0.79684
C         27.17657        12.91399         0.96564
C         25.89383        15.01780         0.30122
C         25.78791        16.36567        -0.17629
C         27.13385        14.28411         0.27456
C         26.98156        17.03081        -0.73810
C         25.82525        19.21704        -0.63648
C         27.02033        18.51132        -0.81379
C         28.27363         1.40802        -0.20785
C         28.29013         3.50335         0.52031
C         29.63424         0.98078        -0.55592
C         29.48049         4.10580         0.15154
C         28.31868         6.28319         0.33784
C         28.34771         7.70531         0.37625
C         29.52032         5.53791         0.09649
C         29.58793         8.37959         0.17621
C         28.45133        10.55101         0.69662
C         28.45049        12.07472         0.66535
C         29.64096         9.80830         0.20973
C         29.57553        12.65931        -0.13022
C         28.29854        14.89591        -0.15603
C         28.27803        16.27481        -0.68916
C         29.54449        14.14024        -0.43807
C         29.54012        17.06693        -0.64005
C         28.24196        19.14805        -1.11701
C         29.48827        18.47372        -1.09896
C         30.67822         1.83575        -0.48743
C         30.62720         3.35545        -0.51070
C         31.92857         4.03538        -0.17098
C         30.76606         6.20316        -0.04675
C         30.79643         7.62762        -0.03682
C         31.97190         5.38398        -0.05378
C         32.01051         8.34951        -0.23256
C         30.84974        10.49004        -0.02399
C         30.87257        11.94363        -0.15642
C         32.03238         9.72232        -0.24635
C         31.99583        12.65809        -0.51317
C         30.83498        14.82765        -0.63997
C         30.86766        16.31899        -0.65300
C         31.97998        14.07414        -0.71020
C         32.01162        17.05986        -1.18963
C         30.69260        19.11629        -1.39980
C         31.91704        18.40125        -1.46821
O          7.01629         6.02003         1.88907
O         29.20906        13.11294        -1.47228
O         28.87056        11.39019         1.86312
O          2.92247        13.06454        -2.14400
O         14.32029        12.53093         2.19248
O         11.14123         7.12510        -1.49363
O         24.96553         5.77004         1.69479
O         24.70069        13.76315         2.11303
O         17.98497         8.25513         1.73925
O          5.41812         3.51802         1.87646
O         23.72745        10.16354         2.20416
O          2.42706         5.70428         1.36421
O         20.49552        10.31134        -1.38873
O          6.49131        12.41835         2.11672
O         19.02272         3.56615         1.68309
O          3.57620        12.70838         1.39702
O          6.27096        17.04646         1.59594
O         12.75711        10.02844         2.05456
O         28.28726         2.18666         0.96769
O         18.36206        11.51256        -1.42614
O          9.10842        14.58208         2.23617
O         10.39179        12.68626        -0.76546
O         19.32108        17.02528         1.96535
O          3.69484        16.53038        -2.54031
O         16.22010        12.71406        -1.05316
O          3.91608         8.18850         1.84080
O         27.53877        16.39204        -1.95043
O         30.29243        16.88330         0.59358
O         23.02595         6.28681        -1.50891
O          8.92477         8.44783        -1.34247
O         18.50343        14.61185         2.36932
H         19.01227        15.32710         2.82146
O         20.68055         2.01814        -2.41016
H         19.92504         2.62448        -2.60737
O         19.02532         4.18058        -1.90543
H         19.47734         4.83853        -2.47594
O         23.56785        16.78558         2.11649
H         24.21135        16.13284         2.47035
O         23.69355         3.75227        -2.27904
H         23.59242         4.72086        -2.44200
O          8.04444         6.02235        -1.62980
H          8.59882         6.61302        -2.19233
O         27.25883        13.27086         2.36573
H         27.15978        12.42611         2.87116
O         26.15824        10.77833         2.71756
H         25.25511        10.86714         3.10898
O         30.40745         3.61584        -1.95083
H         30.51556         4.58159        -2.08956
O         20.65053        16.47588        -1.42065
H         21.41478        16.04560        -1.85952
H          0.62992         1.34001        -1.44106
H          0.50751         3.80835        -1.24029
H          2.69513         0.12920        -0.73790
H          0.59203         5.77963        -1.42720
H          0.54410         8.18242        -1.31224
H          0.18307        10.05604        -0.56681
H          0.24293        12.40255        -1.18090
H          0.41845        14.39609        -1.59324
H          0.47434        16.81917        -1.85073
H          1.71394        19.02543        -1.68589
H          4.99519         0.15639        -0.18793
H          3.74745        20.27965        -1.08726
H          7.46366         0.18417        -0.10322
H          6.15187        20.34149        -0.59963
H          9.91526         0.24884         0.06392
H          8.63784        20.36423        -0.20992
H         12.35230         0.28808         0.22069
H         11.02661        20.36383         0.13111
H         14.81773         0.29653         0.27794
H         13.46342        20.39016         0.29624
H         17.26158         0.28614         0.26283
H         15.94538        20.40253         0.25920
H         19.52966         0.35468        -0.79529
H         18.37986        20.41127         0.03537
H         22.16918         0.28809        -0.59384
H         20.90494        20.38321        -0.33464
H         24.66701         0.30015        -0.89876
H         23.41237        20.35870        -0.38081
H         26.96933         0.60996        -1.68292
H         25.82036        20.31109        -0.75402
H         29.82142        -0.08116        -0.78631
H         28.23778        20.23165        -1.31117
H         31.67835         1.42737        -0.71157
H         32.85635         3.44508        -0.12897
H         32.94131         5.87622         0.11075
H         32.94691         7.80080        -0.40011
H         32.98770        10.23374        -0.42322
H         32.96797        12.15509        -0.60273
H         32.94712        14.56842        -0.87911
H         32.94623        16.52516        -1.40957
H         30.67861        20.17833        -1.68354
H         32.80890        18.93460        -1.82755
