         300
 CSIRO Nanostructure Databank - Neutral Graphene Oxide Data Set
C         30.65161        31.28613        -0.00971
C         30.59354        32.55400        -0.18831
C         30.61680        35.67554        -0.71045
C         30.48007        36.86767        -1.00080
C         30.27753        39.96462        -0.70982
C         30.22424        41.14766        -0.32788
C         32.97853        28.76177         1.61828
C         32.02380        29.26781         0.97518
C         32.73218        31.61276         1.20308
C         31.62722        30.56417         0.66523
C         32.91633        32.54311        -0.03715
C         31.70248        33.43987        -0.33758
C         32.97868        35.65231        -0.63176
C         31.72089        34.80695        -0.48551
C         32.92407        37.11552        -0.95790
C         31.59837        37.82171        -1.37376
C         32.63957        40.12693        -1.02829
C         31.51769        39.11263        -0.56523
C         32.59254        41.37472        -0.12059
C         31.31592        42.04605        -0.07903
C         32.30917        44.31943        -0.03736
C         31.40738        43.42655         0.12319
C         35.62747        27.51241         1.70044
C         35.46793        28.84329         1.99180
C         34.17816        29.53277         2.03160
C         35.39412        31.82354         1.65554
C         34.06907        31.03273         1.72442
C         35.44499        33.25984         1.17639
C         34.23077        34.13560         1.17682
C         35.39899        36.07510         0.15812
C         34.22797        35.19079         0.08698
C         35.34297        37.30855        -0.43790
C         34.05689        37.89532        -0.83452
C         35.21608        40.16544        -0.55829
C         34.04859        39.39284        -1.17437
C         35.09000        41.54426        -0.13374
C         33.81204        41.97923         0.26429
C         34.88544        44.76196        -0.29574
C         33.64799        44.17082         0.29515
C         35.16240        46.16851         0.18877
C         37.43899        27.45858         0.22552
C         36.44649        26.76117         1.07871
C         37.51968        28.99945         0.44116
C         36.84255        29.52639         1.76610
C         37.97413        31.73885         1.26634
C         36.69741        31.05238         1.68304
C         37.91518        33.24433         1.17387
C         36.61276        33.92512         0.93194
C         37.87396        35.94197        -0.14066
C         36.65851        35.46087         0.74965
C         37.86061        37.46907        -0.17534
C         36.60402        38.08084        -0.75390
C         37.66623        40.34695        -0.37291
C         36.44263        39.54301        -0.48857
C         37.62443        41.82725        -0.21130
C         36.28137        42.43948         0.09649
C         37.54325        44.71344        -0.23033
C         36.22386        43.97167         0.05175
C         37.58938        46.23372        -0.12208
C         36.25611        46.72629         0.23575
C         39.81410        24.59868        -0.07448
C         38.77290        25.25509        -0.19382
C         39.92444        27.37400        -0.70578
C         38.57266        26.69880        -0.37061
C         39.95589        28.86881        -0.37069
C         38.94960        29.54520         0.24873
C         40.14411        31.83453        -0.12037
C         39.11219        30.99147         0.62929
C         40.42130        33.17129         0.59960
C         39.18884        33.96496         0.91820
C         40.01111        36.22341         1.09218
C         39.11810        35.40010         0.51036
C         40.15158        37.63975         0.76867
C         38.92020        38.23647         0.19276
C         40.14752        40.31883        -0.56658
C         38.93058        39.74075         0.18512
C         40.24705        41.81963        -0.24292
C         38.94399        42.52005         0.09851
C         40.13526        44.76715        -0.36072
C         38.87268        44.01332        -0.00630
C         40.16905        46.22362         0.05895
C         38.85647        46.94349         0.21345
C         39.95380        48.45771         1.73457
C         38.91253        48.04636         1.19806
C         42.39928        24.62432         0.31334
C         41.20224        24.89845        -0.46999
C         42.41889        27.39717        -0.04933
C         41.08900        26.71073         0.08527
C         42.49154        28.68124        -0.48897
C         41.25588        29.53064        -0.83972
C         42.74493        31.61911        -0.19422
C         41.40372        31.02549        -0.46291
C         42.90065        32.85617         0.67814
C         41.66803        33.71611         0.73286
C         42.88230        35.89491         0.54706
C         41.91807        35.11512         1.11682
C         42.84961        37.42211         0.50069
C         41.52138        38.23336         0.48583
C         42.72035        40.24332        -0.68591
C         41.46771        39.50997        -0.34478
C         42.61118        41.75432        -1.11350
C         41.42044        42.49778        -0.43388
C         42.74152        44.72665        -0.14673
C         41.43102        44.01371        -0.48386
C         42.69619        46.28949         0.05828
C         41.39720        46.59409         0.86704
C         42.54351        48.33775         2.24178
C         41.36383        48.38395         1.34593
C         43.41899        25.23770         0.62790
C         44.84011        26.94623        -0.57265
C         43.73097        26.70033         0.48003
C         45.09367        28.50024        -0.56568
C         43.84534        29.32429        -0.56114
C         45.27738        31.42589        -0.15317
C         43.95510        30.73935        -0.10138
C         45.20645        32.90444        -0.56463
C         44.22811        33.67587         0.37398
C         45.35101        35.91493         0.11112
C         44.02356        35.15346        -0.16395
C         45.34139        37.35825        -0.49617
C         44.08670        38.12609        -0.02791
C         45.32880        40.32508        -0.57974
C         44.05476        39.55437        -0.53255
C         45.17494        41.81192        -0.22663
C         44.03836        42.52402        -1.05822
C         45.31219        44.64849        -0.48647
C         43.99044        43.93815        -0.44893
C         45.17669        46.81615         0.15359
C         43.96930        46.91983         0.78159
C         43.60807        47.87124         1.77418
C         47.31977        26.94273        -0.21857
C         46.21147        26.39980        -0.24351
C         47.67852        28.34347         0.07839
C         46.39288        29.14127        -0.07607
C         47.83410        31.29979        -0.34610
C         46.51056        30.60764        -0.41554
C         47.84354        32.82294        -0.33144
C         46.56682        33.60353        -0.50669
C         47.86985        35.81247        -0.13081
C         46.57266        35.12322        -0.35715
C         47.92293        37.30679        -0.14218
C         46.64168        38.15070        -0.05737
C         47.88831        40.47854        -0.36924
C         46.67730        39.60967        -0.56198
C         47.66416        41.77966         0.40800
C         46.56293        42.57518        -0.33721
C         47.68621        44.76385         0.51803
C         46.44994        44.06346         0.00497
C         47.51403        46.22284         0.42197
C         46.53754        46.96819         0.59821
C         50.29458        28.52506         0.30128
C         49.00402        29.02184        -0.27782
C         50.35474        31.25654         0.11504
C         49.01436        30.54655         0.26331
C         50.38126        32.74894         0.16663
C         49.08528        33.51564         0.16872
C         50.43198        35.77661         0.40283
C         49.11596        35.04639         0.22845
C         50.39576        37.34506         0.33490
C         49.17001        37.75524        -0.46048
C         50.41464        40.40514         0.09486
C         49.25508        39.94873        -0.41690
C         50.33622        41.74166         0.77383
C         49.01372        42.48946         0.72521
C         50.33813        44.52346         0.78247
C         48.95469        44.01877         0.81609
C         51.38825        29.09839         0.40512
C         52.74388        31.37545         0.34833
C         51.57487        30.54190         0.79088
C         52.74469        32.60788         0.23884
C         51.66881        33.53601        -0.24874
C         52.75192        35.85751        -0.17890
C         51.71703        35.01220         0.12627
C         52.61251        37.16513        -0.19597
C         51.68983        38.12827        -0.13363
C         52.79291        40.49423         0.14440
C         51.70259        39.65116        -0.43618
C         52.80024        41.69500         0.42747
C         51.85669        42.58555         1.11631
C         51.41692        43.93157         0.63928
O         33.44752        34.20426         2.10851
O         40.71873        44.51386        -1.66249
O         46.91532        28.77890         1.23031
O         39.10847        31.25873         2.05611
O         36.77699        37.85071        -2.28912
O         44.71187        39.84428        -1.80913
O         49.55774        41.88683         1.97919
O         42.93413        32.39053         2.00454
O         37.72322        41.26114        -1.53783
O         43.42825        44.01993         0.91215
O         34.39990        39.51575        -2.63375
O         33.98726        34.85460        -1.32232
O         37.53403        45.56666        -1.41263
O         37.45633        27.12675        -1.18102
O         42.06422        39.32819        -1.64875
O         36.26620        43.26142         1.30103
O         47.34635        40.15087        -1.71680
O         33.88365        30.48943         3.08093
O         49.34472        38.85878        -1.29288
O         40.88589        38.41473         1.77963
O         43.82385        38.05281         1.40463
O         49.63635        35.40178         1.55997
O         49.66066        33.03976         1.41838
O         41.05500        29.54950        -2.34225
O         39.72727        47.20130        -0.92695
O         33.81524        43.08322         1.16820
O         40.97521        35.71441         1.95882
O         44.70423        31.00148         1.11917
O         44.62480        29.10487        -1.79970
O         36.15490        31.64422         2.89547
O         47.41812        33.27880        -1.64537
O         42.15905        31.76168        -1.50989
O         42.16264        41.77398        -2.43409
O         48.06840        44.39724         1.89069
O         38.95565        43.34724         1.29161
O         47.28623        30.83582        -1.61548
O         45.18978        45.96855        -0.96658
O         33.82330        32.35505        -0.81483
O         47.30959        35.62173        -1.51753
O         38.66827        33.84825         2.29732
O         49.12708        29.04535        -1.68687
H         49.13579        28.12750        -2.02786
O         44.45730        42.66567        -2.41077
H         43.69344        42.31011        -2.95873
O         50.17692        37.84512         1.65884
H         49.82626        37.10301         2.20939
O         31.57785        38.10073        -2.75169
H         31.79055        37.29080        -3.25948
O         51.77657        39.78989        -1.84897
H         50.95426        39.42273        -2.24438
O         47.14064        41.36934         1.68528
H         47.90605        41.23364         2.29612
O         52.04800        42.56754         2.47856
H         51.22456        42.86672         2.92227
O         34.22666        38.24508        -3.29853
H         35.16660        37.91976        -3.35755
O         31.72156        38.81446         0.80316
H         31.02784        38.18939         1.10354
O         51.63711        33.49070        -1.68004
H         52.44796        33.92067        -2.02551
O         45.54041        36.04979         1.53521
H         44.66613        36.17234         1.96908
O         48.74092        30.50963         1.67176
H         49.58644        30.44405         2.17808
O         39.86477        40.20255        -1.97064
H         40.62773        40.65246        -2.43848
O         32.28169        40.64758        -2.30161
H         32.29294        39.91557        -2.96149
O         41.60570        49.15130         0.21513
H         40.76177        49.30049        -0.26308
O         32.07268        32.29090         2.24828
H         32.32288        31.86685         3.09949
O         42.60478        46.88160        -1.22453
H         42.40397        47.83888        -1.11532
O         38.95106        40.19681         1.55541
H         39.69400        39.74719         2.02920
O         39.51204        32.18483        -1.37040
H         40.22172        32.46137        -1.99335
O         44.35876        26.53191        -1.81795
H         44.82007        27.02114        -2.53080
O         40.72354        26.66528         1.44049
H         41.50882        26.44113         1.98408
O         42.33353        29.54005        -3.00284
H         42.64218        30.47989        -2.89137
O         44.67666        41.84319         1.11549
H         45.40931        41.61587         1.73843
O         45.27491        37.27701        -1.92100
H         46.12380        36.89017        -2.24746
O         34.75393        44.79731        -1.70026
H         35.53817        45.26612        -2.07222
O         41.35700        45.83036         2.04008
H         42.21746        45.88678         2.50729
O         44.07010        27.33167         1.69895
H         44.97858        27.07187         1.96412
O         47.01134        42.61663        -1.70086
H         46.21661        42.67039        -2.29486
O         36.84184        35.99667         2.07167
H         37.51502        35.43504         2.53262
O         44.77211        32.88426        -1.92720
H         45.57426        32.80856        -2.49179
O         37.69340        29.19532         2.85219
H         37.53601        29.82676         3.58641
O         51.43686        30.65567         2.19789
H         52.23589        30.28830         2.63044
O         37.72443        35.39576        -1.45705
H         37.42530        36.10101        -2.07642
O         46.54661        38.42491         1.36341
H         46.28954        37.58401         1.82412
O         40.12033        27.12246        -2.10462
H         40.54433        27.91306        -2.52994
O         41.42794        24.77216        -1.81028
H         40.70931        25.22280        -2.31047
O         36.73554        29.60538        -0.60541
H         36.88819        29.08996        -1.43168
O         37.29566        39.03278        -2.91646
H         38.24521        39.11673        -2.62190
O         43.73131        35.11995        -1.55905
H         44.08730        35.93950        -1.98853
O         44.92785        33.74336         1.61187
H         44.41540        33.15260         2.24248
