         667
 CSIRO Nanostructure Databank - Neutral Graphene Oxide Data Set
C          6.66328        32.52792        -1.45066
C          6.59456        33.83301        -1.07243
C          8.94349        28.15405        -1.33997
C          8.88159        29.48275        -0.96732
C          7.78215        30.33806        -1.35703
C          8.95271        32.32891        -0.40149
C          7.75146        31.67197        -1.04160
C          8.65392        33.61111         0.34138
C          7.54505        34.42702        -0.14564
C          8.23849        36.29589         1.38092
C          7.35440        35.69473         0.32467
C          8.40257        37.77484         1.20873
C         11.26395        23.76237        -1.28083
C         11.22318        25.12157        -0.91393
C         10.14054        25.97812        -1.33972
C         11.09894        27.89752        -0.15340
C         10.04782        27.31291        -0.95435
C         10.99763        29.18948         0.33944
C          9.88840        30.03953        -0.06960
C         10.65986        31.78597         1.51639
C          9.82422        31.35304         0.33605
C         10.65657        33.29250         1.79722
C          9.55425        34.12415         1.24800
C         10.69480        36.20479         1.93524
C          9.54195        35.54471         1.56395
C         10.77087        37.65189         1.88845
C          9.56808        38.44525         1.58914
C         10.82333        40.53431         2.22031
C          9.61795        39.84598         1.65259
C         10.91997        41.98112         1.81402
C         13.55447        19.36033        -1.65902
C         13.03264        20.48512        -1.01657
C         12.31796        21.59416        -1.50400
C         13.34795        23.42309        -0.02068
C         12.29855        22.88850        -0.87097
C         13.36646        24.82565         0.27099
C         12.29749        25.65426        -0.15934
C         13.24220        27.60882         1.09508
C         12.40949        27.15074        -0.07040
C         13.27549        29.07125         1.31054
C         12.10857        29.81075         1.04599
C         13.19030        31.80429         1.94958
C         12.04611        31.17208         1.46137
C         13.17686        33.21604         2.39904
C         11.88027        33.98205         2.33162
C         13.21602        36.14515         2.04674
C         11.92556        35.50938         2.50500
C         13.23901        37.50016         1.76796
C         12.00606        38.27146         1.88966
C         13.25074        40.38146         1.23883
C         12.08737        39.74491         1.90485
C         13.07530        41.71752         0.52872
C         11.98983        42.56476         1.17305
C         13.20977        44.60836         0.49676
C         12.04721        43.97200         0.97696
C         13.25298        46.01286         0.36393
C         16.09800        15.17425        -2.03362
C         15.84637        16.30836        -1.07917
C         14.79988        17.26358        -1.58941
C         15.70945        19.16056        -0.30342
C         14.64917        18.57107        -1.11788
C         15.72120        20.49873         0.18812
C         14.52587        21.24926         0.30894
C         15.69513        23.28683         0.85334
C         14.50590        22.66042         0.37088
C         15.64930        24.65960         1.22209
C         14.49663        25.39437         0.98310
C         15.55957        27.43929         2.25971
C         14.37406        26.76220         1.55176
C         15.65729        28.92455         1.95038
C         14.45115        29.69220         1.75003
C         15.68270        31.79122         2.06566
C         14.44731        31.11180         1.95488
C         15.75367        33.20483         2.13251
C         14.49460        33.95611         2.41817
C         15.63753        36.00225         1.48332
C         14.53601        35.48152         2.38460
C         15.65374        37.45569         1.19005
C         14.44689        38.15098         1.29520
C         15.67858        40.25456         0.76483
C         14.33199        39.50587         0.62811
C         15.62052        41.68057         0.23122
C         14.40514        42.43863         0.34238
C         15.55395        44.50942        -0.39697
C         14.38757        43.82047         0.17604
C         15.65536        45.98202        -0.26885
C         14.44201        46.71764         0.03981
C         15.69285        48.84783        -0.10749
C         14.47464        48.11841         0.05251
C         15.72361        50.22335         0.03101
C         18.73710        11.21731        -3.28468
C         18.66978        12.53609        -2.76968
C         17.45444        13.25875        -2.76632
C         18.55037        15.13351        -1.62704
C         17.35113        14.54048        -2.15721
C         18.47586        16.46481        -0.99223
C         17.13282        17.05962        -0.74074
C         18.31107        19.26016        -0.23718
C         17.04053        18.53372        -0.55432
C         18.16271        20.40435         0.70405
C         16.92040        21.18727         0.59177
C         18.11787        23.16157         1.50048
C         16.89072        22.50928         1.04185
C         18.10726        24.53876         1.78188
C         16.78742        25.21471         2.06375
C         18.06758        27.38104         2.04224
C         16.85971        26.71300         2.01294
C         18.09840        28.82587         2.11682
C         16.87571        29.57205         1.98184
C         18.16637        31.72030         2.17542
C         16.92686        31.05050         1.63627
C         18.29286        33.24094         2.30582
C         16.96728        33.88266         1.96178
C         18.17587        35.94561         1.07221
C         16.92987        35.23540         1.40868
C         18.09494        37.33237         0.70862
C         16.86612        38.03720         0.71377
C         18.12306        40.18458         0.22625
C         16.81197        39.43627         0.13216
C         18.08883        41.57254         0.00739
C         16.83458        42.28520        -0.10441
C         18.12042        44.40216        -0.75756
C         16.82245        43.67470        -0.60875
C         18.11913        45.94281        -0.70070
C         16.85911        46.65736        -0.41245
C         18.15249        48.76998        -0.41194
C         16.93557        48.09847        -0.30704
C         18.15636        50.26134        -0.64517
C         17.02435        50.97527         0.11596
C         18.26826        53.10858        -0.37866
C         16.90544        52.43784        -0.33710
C         18.32326        54.48405        -0.45563
C         21.32443         7.11076        -4.30311
C         21.25725         8.44045        -3.82915
C         20.04423         9.18050        -3.82467
C         21.14089        11.15537        -2.82965
C         19.95722        10.50480        -3.31042
C         21.09292        12.43945        -2.24088
C         19.85290        13.13773        -2.21300
C         20.97200        15.04583        -1.09974
C         19.78546        14.45346        -1.65452
C         21.00407        16.49809        -0.83682
C         19.74019        17.28542        -0.98507
C         20.79098        19.09055         0.51911
C         19.73417        18.74697        -0.51703
C         20.67316        20.26798         1.21639
C         19.37396        20.98101         1.36317
C         20.54095        23.10992         1.88936
C         19.34383        22.43582         1.62366
C         20.56115        24.53072         1.95541
C         19.32604        25.25047         1.94084
C         20.56700        27.38916         2.08609
C         19.33712        26.67760         2.04999
C         20.58982        28.83783         2.14262
C         19.31385        29.50045         2.28653
C         21.01106        31.90554         2.06548
C         19.18639        30.91820         2.56961
C         20.71422        33.19037         1.44515
C         19.48672        33.85599         1.52917
C         20.56168        35.90956         0.52578
C         19.39007        35.22948         1.03081
C         20.55511        37.29631         0.30021
C         19.32877        38.04463         0.42911
C         20.65215        40.18527         0.33095
C         19.33227        39.44922         0.28301
C         20.55927        41.56912        -0.24063
C         19.34764        42.27130        -0.23392
C         20.61323        44.39889        -0.36904
C         19.34826        43.66676        -0.49127
C         20.61648        45.90302        -0.31215
C         19.37237        46.66561        -0.44436
C         20.67526        48.77030        -0.39044
C         19.40346        48.05326        -0.42067
C         20.69569        50.16596        -0.32739
C         19.48515        50.93808        -0.36324
C         20.73172        53.06836         0.00854
C         19.48102        52.33222        -0.30094
C         20.78769        54.51748        -0.30301
C         19.56421        55.20785        -0.51935
C         20.80551        57.28630        -0.87828
C         19.59977        56.59606        -0.78484
C         20.77993        58.78829        -1.02805
C         23.82041         4.35405        -4.72371
C         22.62165         5.05424        -4.77631
C         23.72379         7.00071        -3.75837
C         22.54273         6.39189        -4.29272
C         23.67619         8.35087        -3.29800
C         22.46597         9.06263        -3.36788
C         23.64326        11.05947        -2.26620
C         22.42576        10.47925        -3.00610
C         23.46412        12.29933        -1.48749
C         22.25804        13.02009        -1.60093
C         23.34322        14.93272        -0.41206
C         22.17826        14.33273        -1.02610
C         23.30545        16.26712         0.09627
C         22.14148        17.07487        -0.08117
C         23.17928        18.87690         1.23216
C         22.03565        18.33625         0.53330
C         23.12210        20.17789         1.79992
C         21.82531        20.83575         1.92342
C         23.05527        23.08679         2.22651
C         21.77786        22.35910         2.19528
C         23.02696        24.47725         2.14961
C         21.79994        25.22593         2.06950
C         23.02716        27.37281         1.86060
C         21.80195        26.65613         2.05415
C         22.98437        28.75248         1.57394
C         21.81032        29.52978         1.83924
C         22.93738        31.48541         0.61806
C         21.88107        30.96664         1.56408
C         22.96116        32.99052         0.53194
C         21.83250        33.73567         0.69691
C         23.03138        35.79322        -0.06544
C         21.70054        35.06921        -0.00282
C         22.94195        37.18917        -0.64243
C         21.76631        37.99649        -0.12152
C         23.02993        40.07357        -0.57761
C         21.80976        39.37269        -0.20553
C         23.04578        41.47061        -0.73202
C         21.74172        42.19607        -0.92566
C         23.04266        44.34761        -0.86505
C         21.86021        43.67894        -0.66831
C         23.03435        45.82767        -0.98906
C         21.86494        46.61789        -0.60889
C         23.20902        48.66317        -0.48665
C         21.91089        48.00398        -0.54260
C         23.24278        50.06304         0.09047
C         22.03167        50.88539        -0.42636
C         23.30680        53.04423         0.11842
C         22.00177        52.28936         0.16215
C         23.29471        54.47901        -0.30409
C         22.00184        55.18770        -0.49523
C         23.29357        57.29288        -0.91495
C         22.04138        56.59037        -0.75831
C         23.31969        58.63782        -1.30383
C         22.09927        59.39102        -1.44545
C         23.37179        61.32975        -2.20165
C         22.13666        60.69644        -1.88786
C         24.97181         4.93596        -4.17774
C         26.09494         6.84917        -3.07610
C         24.94354         6.25656        -3.67754
C         26.05508         8.12777        -2.51289
C         24.83454         8.91598        -2.62838
C         25.80872        10.57934        -1.07053
C         24.75300        10.14805        -2.00096
C         25.71780        11.96183        -0.46116
C         24.55025        12.82139        -0.74850
C         25.68282        14.70140         0.40782
C         24.52104        14.14556        -0.25349
C         25.60852        15.96717         0.98917
C         24.42824        16.78883         0.83657
C         25.40794        18.63380         2.32886
C         24.36977        18.09792         1.35374
C         25.49714        20.14488         2.30566
C         24.31300        20.87445         2.23023
C         25.50388        23.03426         2.48239
C         24.29810        22.33761         2.37264
C         25.55398        24.46875         2.25911
C         24.27648        25.25346         2.45959
C         25.47988        27.25762         1.60904
C         24.28851        26.64709         1.88402
C         25.50547        28.65180         1.12778
C         24.21469        29.39993         1.06867
C         25.46248        31.53732         0.78584
C         24.27985        30.87299         0.94565
C         25.46026        33.04189         0.64523
C         24.20697        33.58670        -0.06927
C         25.52948        35.81204         0.03926
C         24.19398        35.10563        -0.03014
C         25.50311        37.21945        -0.51626
C         24.25718        37.93500        -0.58383
C         25.57144        40.03935        -0.61485
C         24.25239        39.31259        -0.67522
C         25.49645        41.44884        -1.16337
C         24.25145        42.21177        -0.96734
C         25.55958        44.33442        -1.06849
C         24.28489        43.61455        -1.04726
C         25.58358        45.75353        -0.96334
C         24.36716        46.56354        -1.06069
C         25.70208        48.58860        -0.20514
C         24.38673        47.98146        -0.66419
C         25.74231        50.10092        -0.35130
C         24.52869        50.79231        -0.22988
C         25.79009        52.90664        -0.47004
C         24.60244        52.23583         0.20346
C         25.75062        54.30372        -0.99257
C         24.45439        55.09977        -1.06924
C         25.82521        57.19509        -1.26811
C         24.59806        56.56311        -0.64238
C         25.77744        58.56490        -1.62572
C         24.57674        59.28415        -1.63937
C         24.55674        60.64897        -2.07255
C         27.19644         8.70190        -1.87748
C         28.24282        10.55343        -0.60411
C         27.12987         9.92443        -1.19220
C         28.18077        11.85888        -0.04822
C         26.96250        12.60586        -0.01952
C         28.12765        14.53940         0.91688
C         26.92463        13.93425         0.43795
C         28.10545        15.87339         1.41843
C         26.80210        16.50744         1.67986
C         28.04087        18.66386         2.25961
C         26.76646        17.91636         2.25988
C         28.05108        20.08684         2.38700
C         26.76946        20.78672         2.63941
C         28.04492        22.98371         2.37596
C         26.77607        22.31493         2.68106
C         28.06877        24.49184         2.35761
C         26.73660        25.11211         2.02192
C         28.04061        27.23543         1.46886
C         26.73456        26.46611         1.35611
C         28.02894        28.67808         1.17064
C         26.76226        29.45570         1.40754
C         27.88217        31.44503         0.32357
C         26.74157        30.83740         0.78818
C         27.88252        32.85746        -0.05160
C         26.72655        33.59497         0.02937
C         27.96735        35.70959        -0.52914
C         26.64878        34.97509        -0.58012
C         27.95427        37.09340        -0.67165
C         26.72991        37.83218        -0.73762
C         28.03832        40.02934        -0.85591
C         26.76680        39.26798        -1.21587
C         28.05392        41.41761        -0.86342
C         26.82296        42.17932        -1.21118
C         28.05617        44.33147        -0.68597
C         26.78363        43.62230        -1.04632
C         28.09321        45.70973        -1.30830
C         26.83519        46.49933        -1.15791
C         28.16231        48.54217        -0.72651
C         26.92873        47.92410        -0.79318
C         28.28317        50.00461        -0.34883
C         26.99604        50.74599        -0.35939
C         28.25251        52.87175        -0.97638
C         27.12680        52.24529        -0.16434
C         28.21255        54.30748        -1.18095
C         27.03947        55.03374        -1.14843
C         26.99230        56.44820        -1.37688
C         29.36107        12.48485         0.45083
C         30.58400        14.35342         1.56321
C         29.34057        13.78313         0.92418
C         30.55002        15.85164         1.73887
C         29.29131        16.54275         1.78239
C         30.50343        18.63979         2.19974
C         29.27041        17.95353         2.09553
C         30.56580        20.10957         2.52086
C         29.24312        20.82678         2.34624
C         30.48307        23.01731         2.10550
C         29.22751        22.26857         2.27682
C         30.50267        24.36092         1.87142
C         29.20241        25.03004         1.47650
C         30.51118        27.32013         1.45908
C         29.21302        26.54057         1.49544
C         30.37250        28.49392         0.51534
C         29.14007        29.29729         0.67770
C         30.38479        31.32990        -0.23757
C         29.05708        30.59366        -0.10294
C         30.34361        32.76204        -0.48319
C         29.15553        33.48490        -0.42777
C         30.41001        35.62503        -0.49055
C         29.18583        34.94256        -0.54274
C         30.36249        37.09971        -0.17394
C         29.26190        37.80676        -0.95381
C         30.44710        39.94427        -0.37173
C         29.26329        39.29545        -0.65099
C         30.46748        41.41464        -0.04468
C         29.27852        42.14914        -0.63056
C         30.59866        44.21558        -0.73342
C         29.33309        43.52342        -0.79189
C         30.66935        45.65423        -1.07427
C         29.39209        46.43931        -1.31386
C         30.63982        48.57141        -1.05219
C         29.38207        47.87472        -1.07137
C         30.61427        49.96214        -1.16825
C         29.29277        50.61848        -1.41093
C         29.30557        52.12418        -1.40486
C         31.72909        16.53257         1.94394
C         32.96911        18.65858         2.22162
C         31.73423        17.94926         2.13129
C         33.05655        20.03906         2.00316
C         31.72267        20.78130         1.75313
C         32.74610        23.00647         1.25654
C         31.80526        22.27184         2.16060
C         32.93732        24.34317         1.35080
C         31.80181        25.16057         1.91750
C         32.87842        27.05127         0.68375
C         31.74444        26.49606         1.19565
C         32.93638        28.41492         0.00307
C         31.59052        29.13534        -0.05629
C         32.87659        31.25809        -0.52240
C         31.55853        30.60460        -0.28887
C         32.89272        32.74038        -0.82584
C         31.57582        33.49107        -1.02454
C         32.85920        35.60701        -0.41436
C         31.64538        34.93102        -0.55715
C         32.87862        37.04460        -0.23463
C         31.68466        37.80429        -0.26930
C         32.91746        39.91547        -0.01374
C         31.69671        39.21076        -0.23379
C         33.00447        41.38037        -0.13418
C         31.81402        42.09968        -0.25150
C         33.02902        44.29131        -0.42109
C         31.79799        43.53673        -0.47284
C         33.05949        45.66864        -0.48729
C         31.87905        46.43768        -0.75090
C         31.85878        47.81721        -0.85324
C         34.33528        20.64758         1.97639
C         35.56692        22.86877         1.54770
C         34.58122        21.91014         1.36189
C         35.45382        24.25188         1.10758
C         34.19407        24.96104         0.97476
C         35.37656        27.09313         0.66021
C         34.16641        26.34724         0.74603
C         35.36547        28.51572         0.57560
C         34.04310        29.26247         0.64417
C         35.28625        31.34343        -0.00758
C         34.10903        30.64407         0.01898
C         35.32886        32.77003        -0.30505
C         34.12957        33.48406        -0.51221
C         35.35354        35.58921        -0.28249
C         34.13107        34.90134        -0.41465
C         35.43999        37.06754         0.00057
C         34.08549        37.72860         0.00141
C         35.81080        40.09737        -0.50615
C         34.02841        39.10161         0.26659
C         35.49214        41.50338        -0.71367
C         34.29172        42.06612        -0.35210
C         34.32247        43.57205        -0.16059
C         36.63419        25.00349         0.99334
C         37.83908        27.14594         0.71819
C         36.62888        26.40332         0.77156
C         37.83061        28.53690         0.60180
C         36.56477        29.21635         0.56103
C         37.83729        31.40181         0.32247
C         36.53142        30.68881         0.47562
C         37.82840        32.73537        -0.33570
C         36.55783        33.48322        -0.31428
C         37.85273        35.61143        -0.48143
C         36.58100        34.88880        -0.37986
C         37.85123        37.12078        -0.66491
C         36.44458        37.66809        -1.05111
C         36.44983        39.17867        -1.26868
C         39.07305        29.28348         0.51930
C         40.33167        31.42743         0.28738
C         39.10829        30.64173         0.33975
C         40.34434        32.76143         0.03080
C         39.13113        33.48191        -0.42056
C         39.04776        34.95369        -0.46154
O         38.53053        32.81021        -1.61212
O         20.60300        17.15483        -2.13950
O         33.07717        31.75174        -1.90131
O         26.78168        21.51637         3.92202
O         10.85665        33.47381         3.25606
O         25.35288        10.75451         0.32121
O         13.11475        26.85568         2.34257
O         35.22887        39.67264         0.72392
O         33.58033        22.26111         0.41421
O         27.35480        46.02224        -2.50497
O         25.63318        53.13000        -1.89963
O         13.32773        20.56228         0.37399
O         21.58017        21.38249         3.26309
O         20.67269        45.11494         0.95843
O         15.90203        35.23147         0.28699
O         18.18313        45.21462        -1.98122
O         18.44208        20.10904         2.11869
O         24.83439        28.78489        -0.15612
O         26.13228        41.70156        -2.45166
O         37.14278        31.39926         1.62188
O         17.86565        16.43499         0.37585
O         23.59415        46.26945        -2.28039
O         21.23733        52.58534         1.34333
O         13.22797        40.32413         2.69602
O         26.71076        16.74680         3.14926
O         30.68524        28.31530        -0.91372
O         13.88906        33.45299         3.65740
O         12.59105        41.40132        -0.76905
O         23.44179        54.12738         1.10938
O         30.21296        45.97302        -2.44222
O         15.91858        43.94753        -1.70833
O         23.43236        11.29503        -3.70262
O         20.27645        31.53902         3.20939
O         17.68584        19.41561        -1.56073
O         21.32556        34.80721        -1.35894
O         29.50742        37.67519        -2.37352
H         28.71096        38.01510        -2.84112
O         29.96913        37.20597         1.23529
H         30.62897        36.71693         1.76994
O         26.32609        34.81132        -1.98631
H         26.96372        34.17963        -2.37997
O         32.38200        22.37659         3.48512
H         31.85642        21.78272         4.07464
O         24.83795        18.35294         3.64515
H         25.21110        17.48463         3.93156
O          7.50471        36.13516         2.65954
H          8.05151        36.55069         3.36064
O         25.88199        35.98037         1.44334
H         25.10621        36.34922         1.91408
O         24.88401        52.15755         1.65399
H         24.54359        53.00456         2.03948
O         13.17475        27.57083        -1.25647
H         12.66166        27.30384        -2.04870
O         15.33832        15.71718         0.15888
H         16.12472        15.52406         0.72057
O         33.35004        28.20119        -1.36248
H         32.57700        27.83500        -1.84528
O         28.90926        50.13536         0.94320
H         28.60669        50.99377         1.33311
O         25.88825        40.18208         0.80568
H         25.06468        40.41789         1.28290
O         30.88075        20.21236         3.95340
H         30.11302        19.86120         4.45348
O         17.37466        51.02485         1.52305
H         17.45716        50.10559         1.85295
O         24.22655        25.46146         3.91915
H         24.06030        24.59017         4.33912
O         10.00558        31.15141         2.65641
H         10.30069        31.64256         3.45830
O         20.19284        19.56208        -1.62811
H         19.57760        19.40983        -2.37950
O         23.17426        49.91351         1.53619
H         23.53816        50.74026         1.93650
O         24.81551        56.56247         0.79423
H         24.89043        57.49303         1.09142
O         22.27751        51.11633        -1.84468
H         22.43579        50.24807        -2.27399
O         32.02380        25.47656         3.33078
H         32.97214        25.70234         3.43596
O         38.79620        37.47799        -1.68395
H         38.80990        36.76532        -2.35538
O         27.48555        52.48365         1.23218
H         26.67854        52.25486         1.76333
O         20.96081        40.38742         1.77135
H         20.16485        40.78232         2.18871
O         28.36958        24.92935         3.71742
H         27.70092        24.53858         4.31896
O         22.66032        36.95821        -2.05398
H         22.03423        36.16797        -2.08169
O         36.06955        37.08975        -2.31838
H         36.71083        37.40039        -2.99115
O         18.51405        33.56656         3.70791
H         19.28002        33.02080         4.00501
O         36.02718        37.19952         1.31829
H         35.96142        38.15344         1.56345
O         24.25710        33.17215        -1.46001
H         23.56721        33.68846        -1.93545
O         10.68478        40.52279         3.67862
H         11.59178        40.62446         4.04472
O         31.75929        13.94524         0.85343
H         31.72685        14.33574        -0.04364
O         31.38311        20.68230         0.36079
H         32.12652        21.07110        -0.15508
O         14.86603        35.93588         3.71967
H         14.14302        35.62100         4.31004
O         16.95382        31.11486         0.17041
H         17.00364        32.05938        -0.09123
O         28.72427        30.17582        -1.46889
H         29.38780        29.48457        -1.71533
O         19.72758        59.19845        -1.91018
H         19.92786        58.85559        -2.80505
O         16.54077        39.29636        -1.28279
H         17.20143        38.68436        -1.66788
O         15.29101        27.32650         3.69903
H         14.30719        27.35048         3.79279
O         28.96341        24.62080         0.10392
H         28.16219        25.10488        -0.22162
O         25.36364        33.54856         2.01185
H         26.24121        33.45533         2.43720
O         24.05384        55.12630        -2.45643
H         24.34452        54.27606        -2.85976
O         21.43105        42.08969        -2.36839
H         22.21830        42.40054        -2.86544
O         17.88445        50.43403        -2.07493
H         18.52570        49.88505        -2.57383
O         35.38178        44.18398        -0.90409
H         35.10270        44.24806        -1.84042
O         30.69668        27.90611         2.78314
H         30.98221        27.16644         3.37438
O         31.35940        33.58963        -2.46146
H         31.73996        32.76980        -2.85555
O         22.61744        31.01820        -0.72375
H         23.23331        31.49068        -1.33601
O         16.24874        52.53891        -1.60168
H         16.70220        51.92014        -2.21928
O         11.88616        35.73972         3.94904
H         11.26094        35.07239         4.31660
O         15.99362        40.34686         2.17596
H         15.15723        40.44400         2.68644
O         33.69004        29.43248         2.04271
H         34.42699        29.90264         2.48738
O         30.21993        41.50008         1.41849
H         30.74686        40.79072         1.84538
O         26.63476        26.13975        -0.09336
H         26.35267        26.95577        -0.56582
O          9.79487        32.78976        -1.53503
H          9.86591        32.04519        -2.17035
O         26.69885        29.67602         2.85806
H         27.59439        29.92560         3.16968
O         27.98521        44.64029         0.75913
H         28.12582        43.80452         1.25552
O         13.99534        39.24889        -0.73637
H         13.49586        40.05375        -1.08460
O         26.70538        39.16484        -2.65627
H         26.56870        40.07725        -3.01710
O         28.75651        50.19787        -2.69626
H         29.38171        50.47637        -3.39701
O         25.74255        48.33812         1.23809
H         24.93973        48.76541         1.62342
O         16.46812        24.85352         3.45180
H         15.97874        25.61921         3.84827
H          5.87581        32.09588        -2.08664
H          5.75688        34.45939        -1.41298
H          8.14675        27.72473        -1.96603
H          6.94033        29.88854        -1.90645
H          6.48902        36.28337        -0.01628
H          7.50744        38.36129         0.94979
H         10.46616        23.36567        -1.92659
H          9.34097        25.53712        -1.95360
H          8.73767        40.43687         1.36080
H         10.13570        42.63970         2.22432
H         13.18069        19.08201        -2.65526
H         11.76556        21.49443        -2.45078
H         11.16818        44.58562         1.23094
H         12.34795        46.59406         0.59695
H         15.21450        14.65827        -2.44033
H         14.04095        16.86745        -2.28071
H         13.54896        48.67683         0.25638
H         14.79508        50.76372         0.27067
H         17.82523        10.74463        -3.67741
H         16.55073        12.79034        -3.18319
H         16.26931        52.98610         0.40544
H         17.38471        55.05403        -0.52425
H         20.41449         6.62633        -4.68725
H         19.13124         8.70350        -4.21057
H         18.65708        57.14706        -0.91640
H         20.51750        59.21695        -0.01713
H         23.86529         3.32381        -5.10408
H         21.72066         4.57969        -5.19060
H         23.36718        62.37341        -2.54558
H         21.19651        61.25612        -1.99233
H         25.90679         4.35980        -4.12730
H         27.02339         6.26149        -3.01676
H         26.69713        59.05356        -1.98261
H         25.51089        61.13756        -2.31727
H         28.15278         8.15867        -1.91628
H         29.21955        10.04775        -0.63896
H         29.15536        54.82217        -1.42452
H         27.92366        56.95425        -1.67647
H         30.30545        11.92148         0.46646
H         30.66934        13.89583         2.59074
H         31.52522        50.55860        -1.00605
H         30.12742        52.62371        -1.94615
H         32.68309        15.98634         1.91483
H         33.89839        18.07319         2.30463
H         34.02192        46.18743        -0.36422
H         32.79670        48.37849        -0.72477
H         35.17783        20.09505         2.42228
H         36.46546        22.60124         2.12471
H         36.29408        42.19769        -1.02013
H         34.58067        43.72606         0.92862
H         37.60355        24.49537         1.10926
H         38.79835        26.61116         0.78521
H         38.17939        37.62138         0.28289
H         36.87532        39.50574        -2.23023
H         40.01480        28.71530         0.56673
H         41.27481        30.91308         0.52772
H         41.29043        33.32129         0.08275
H         39.98493        35.53137        -0.49293
