         621
 CSIRO Nanostructure Databank - Neutral Graphene Oxide Data Set
C          6.20755        31.39892        -0.89835
C          6.22249        32.73629        -1.09335
C          8.36517        27.14425         0.25114
C          8.49394        28.58127         0.12997
C          7.31946        29.25552        -0.14022
C          8.33831        31.47579         0.48566
C          7.06261        30.70298         0.14200
C          8.34508        32.96247         0.22858
C          7.24635        33.59947        -0.53079
C          8.45256        35.75791        -0.45802
C          7.30957        34.94273        -0.80705
C          8.47441        37.11685        -0.76731
C         10.92858        22.97643         0.86704
C         10.91356        24.36482         0.91521
C          9.60960        24.97155         0.71692
C         11.25457        27.32468         0.56313
C          9.43222        26.24259         0.17720
C         10.98085        28.72880         0.76128
C          9.72743        29.34786         0.44027
C         10.79814        31.52753         0.91381
C          9.64600        30.75694         0.59811
C         10.72956        33.00324         0.97451
C          9.60205        33.72435         0.34717
C         10.84300        35.86757         0.34850
C          9.61298        35.08027         0.10403
C         10.85946        37.33562        -0.06065
C          9.63726        37.94434        -0.64086
C         10.91483        40.03699        -1.04629
C          9.68654        39.27722        -1.02897
C         10.97291        41.39441        -1.34665
C         13.44079        18.70210         1.12103
C         13.38707        20.10637         1.31377
C         12.21132        20.78867         1.01237
C         13.30073        22.94576         1.83192
C         12.03401        22.17906         1.37263
C         13.31662        24.41806         1.67204
C         12.13750        25.10996         1.26622
C         13.22591        27.29299         2.01857
C         12.16304        26.55496         1.28183
C         13.24441        28.78845         1.82115
C         12.06834        29.48164         1.24491
C         13.29116        31.60828         1.34860
C         12.02998        30.88766         1.23337
C         13.31924        32.95305         1.04343
C         12.09153        33.76533         1.01477
C         13.34346        35.73580         0.07914
C         12.10225        35.11898         0.47580
C         13.38350        37.23389        -0.23936
C         12.13243        38.01089        -0.36388
C         13.44945        39.93163        -1.16787
C         12.15298        39.30730        -0.81736
C         13.52628        41.40121        -1.62675
C         12.20364        42.13974        -1.45727
C         13.44843        44.31522        -1.57855
C         12.20885        43.51163        -1.50685
C         13.41261        45.78262        -1.49806
C         15.72344        14.43037         0.85635
C         15.74887        15.78646         1.23722
C         14.58963        16.55959         1.19041
C         15.80869        18.66745         1.75554
C         14.60604        17.97383         1.37674
C         15.82330        20.05451         1.92029
C         14.58805        20.81236         1.75256
C         15.75022        22.94298         2.32903
C         14.56015        22.19160         1.88918
C         15.76259        24.41361         2.17157
C         14.53406        25.09585         1.95505
C         15.79710        27.26759         2.15561
C         14.49462        26.53405         2.42893
C         15.77734        28.70447         1.77526
C         14.53280        29.50898         1.77767
C         15.81622        31.60780         1.50914
C         14.55000        30.86857         1.53036
C         15.83931        32.99391         1.32012
C         14.60773        33.62147         0.81649
C         15.76002        35.86303         0.98180
C         14.63909        35.05035         0.41850
C         15.69003        37.36758         0.82065
C         14.59745        37.97219         0.05808
C         15.98268        40.04124        -0.48216
C         14.69585        39.26979        -0.58823
C         16.02593        41.48140        -0.88836
C         14.64958        42.15810        -0.84593
C         15.87054        44.39488        -0.62397
C         14.74745        43.62389        -1.23254
C         15.68984        45.85946        -0.47328
C         14.54256        46.51966        -1.15567
C         15.80649        48.66247        -1.15305
C         14.60792        47.91803        -1.33863
C         15.86804        50.00526        -1.60418
C         18.01111        10.36378        -1.03875
C         18.07190        11.65257        -0.30759
C         16.86200        12.40403         0.08201
C         18.15055        14.55745         0.30015
C         16.90812        13.71157         0.53565
C         18.29771        15.76754         1.22328
C         17.02797        16.42640         1.65676
C         18.32405        18.62588         1.82729
C         17.03455        17.87471         2.14300
C         18.29318        20.03971         2.09940
C         17.07914        20.72974         2.20423
C         18.29084        23.00646         2.47113
C         17.06316        22.18393         2.52027
C         18.23147        24.39769         2.47092
C         16.98235        25.11683         2.36008
C         18.26939        27.31024         2.47203
C         16.98447        26.56950         2.28083
C         18.29494        28.79763         2.23444
C         17.07152        29.45515         1.68961
C         18.27468        31.62465         1.55948
C         17.06389        30.93353         1.63821
C         18.29598        33.05635         1.49661
C         17.05395        33.74478         1.35318
C         18.23777        35.90005         1.42416
C         17.05265        35.17486         1.24322
C         18.21886        37.39213         1.38077
C         16.96134        38.13226         1.02034
C         18.29520        40.31312         0.54065
C         17.02485        39.54384         0.46937
C         18.42305        41.67749        -0.01380
C         17.29481        42.35019        -0.76348
C         18.24318        44.50616         0.10686
C         17.06332        43.77897        -0.31843
C         18.14499        45.96467         0.32475
C         16.88336        46.68796        -0.06104
C         18.19256        48.78926        -0.56514
C         16.97871        48.07870        -0.57340
C         18.24927        50.08538        -1.14737
C         17.06867        50.70728        -1.61539
C         18.31921        52.91990        -1.90259
C         17.05939        52.12036        -2.14953
C         18.34603        54.25992        -2.28592
C         20.43039         6.60110        -3.05457
C         20.47381         7.83718        -2.33561
C         19.26658         8.48220        -2.09691
C         20.31311        10.71161        -1.88097
C         19.14827         9.82505        -1.58651
C         20.57076        11.87250        -1.00020
C         19.39671        12.36434        -0.23225
C         20.70079        14.53461         0.22431
C         19.44236        13.75784         0.31111
C         20.69502        15.99041         0.53567
C         19.54385        16.57508         1.10598
C         20.82050        18.64210         1.63929
C         19.51056        17.94938         1.50730
C         20.86930        20.10008         2.01349
C         19.56318        20.76877         2.36997
C         20.84030        22.98137         2.27735
C         19.57526        22.27167         2.54396
C         20.82743        24.40841         2.59535
C         19.50955        25.15101         2.67852
C         20.77786        27.31913         2.40001
C         19.57551        26.61887         2.46942
C         20.79001        28.76793         2.15212
C         19.57421        29.45835         1.98518
C         20.83641        31.62675         1.60092
C         19.54161        30.85172         1.53284
C         20.82028        33.12656         1.52428
C         19.50737        33.81671         1.56894
C         20.72183        35.98593         1.94309
C         19.47959        35.21599         1.61183
C         20.73270        37.50857         1.75372
C         19.52009        38.09860         1.12062
C         20.79215        40.33176         0.99094
C         19.55636        39.55505         0.77871
C         20.76074        41.73080         0.78231
C         19.53731        42.40488         0.34016
C         20.69310        44.61085         0.50669
C         19.47136        43.86241         0.29932
C         20.70208        46.01209         0.40486
C         19.42164        46.75778         0.46028
C         20.71826        48.67348        -0.46933
C         19.40089        48.27731         0.23541
C         20.77415        50.18147        -0.75846
C         19.52079        50.85095        -1.20451
C         20.66967        53.08995        -1.23496
C         19.48469        52.32879        -1.36862
C         20.68620        54.44871        -1.59613
C         19.52527        55.03574        -2.18281
C         20.75378        57.05367        -2.89127
C         19.56778        56.34106        -2.76956
C         20.85250        58.25826        -3.63313
C         22.69231         4.23794        -4.88595
C         21.53579         4.76819        -4.29104
C         22.84047         6.75752        -3.59942
C         21.56505         6.00615        -3.61602
C         22.98137         7.89670        -2.64355
C         21.83568         8.14171        -1.67137
C         23.12173        10.45124        -1.46022
C         22.08871         9.48120        -0.93112
C         23.04196        11.86256        -1.29082
C         21.78603        12.52033        -0.93245
C         23.06100        14.72800        -0.66402
C         21.73989        14.02848        -0.75167
C         23.06591        16.11466        -0.24849
C         21.92722        16.67970         0.40075
C         23.22868        18.86837         0.70103
C         22.04465        18.00612         1.03112
C         23.06651        20.37222         0.64987
C         22.01951        20.93696         1.59167
C         23.12523        23.16140         1.21268
C         21.97806        22.32464         1.75914
C         23.31938        24.47536         1.94909
C         22.10220        25.17886         2.47329
C         23.28414        27.33634         2.30686
C         22.07847        26.65053         2.42396
C         23.28982        28.80942         2.64450
C         22.01752        29.47962         2.17726
C         23.29162        31.74522         2.45434
C         21.97643        30.93170         2.24571
C         23.32381        33.15134         2.11030
C         22.09335        33.87891         1.78833
C         23.22456        36.08883         2.00136
C         22.03426        35.34051         1.98870
C         23.21396        37.52899         1.78062
C         22.00729        38.22583         1.58994
C         23.22359        40.36447         1.29297
C         21.99404        39.63251         1.28534
C         23.20847        41.77698         1.08240
C         21.96598        42.47873         0.86304
C         23.15069        44.63768         0.70950
C         21.93421        43.90237         0.69166
C         23.18128        46.03839         0.63854
C         21.93751        46.74713         0.45786
C         23.06927        48.94464         0.68214
C         21.91682        48.12983         0.26913
C         23.06507        50.43028         0.43728
C         21.82711        51.06186        -0.14534
C         23.17134        53.17112        -0.65790
C         21.84799        52.51208        -0.52113
C         23.21111        54.67035        -0.88109
C         21.89089        55.28067        -1.38629
C         23.26353        57.13435        -2.54746
C         21.94995        56.59288        -2.14816
C         23.30689        58.27328        -3.34889
C         22.08454        58.89786        -3.82470
C         23.41071        60.67204        -4.86319
C         22.17829        60.10887        -4.56904
C         23.92010         4.89385        -4.83635
C         25.25700         6.83403        -4.08326
C         24.05813         6.14366        -4.17174
C         25.41162         8.02651        -3.28863
C         24.36644         8.37710        -2.23471
C         25.46683        10.65263        -2.12768
C         24.30872         9.87790        -1.96414
C         25.46099        12.04025        -1.84580
C         24.22104        12.65297        -1.44704
C         25.38160        14.85407        -1.46256
C         24.17769        14.06983        -1.16059
C         25.38662        16.33666        -1.16464
C         24.23015        16.92667        -0.47281
C         25.52398        19.03391        -0.22305
C         24.31497        18.27638        -0.10585
C         25.58243        20.40004         0.25244
C         24.40886        21.07442         0.69914
C         25.65100        23.18137         0.94347
C         24.43663        22.43210         1.01668
C         25.68080        24.59857         1.22646
C         24.50927        25.29087         1.63203
C         25.75484        27.40436         1.82502
C         24.52175        26.66659         1.96245
C         25.77599        28.85360         1.93626
C         24.53824        29.57880         2.23002
C         25.80035        31.72195         2.18659
C         24.53384        30.95097         2.32753
C         25.82053        33.21570         2.29614
C         24.51462        33.96562         2.56558
C         25.68336        36.08290         1.87113
C         24.48677        35.39898         2.07765
C         25.66014        37.49683         1.62658
C         24.46177        38.22573         1.60960
C         25.67226        40.40219         1.33049
C         24.46496        39.66890         1.41470
C         25.67628        41.80976         1.16159
C         24.44147        42.47414         1.00354
C         25.71341        44.66713         0.65009
C         24.41392        43.89470         0.63360
C         25.64811        46.12329         0.87319
C         24.42919        46.76519         0.77121
C         25.66048        49.03501         0.97077
C         24.36367        48.23529         0.98403
C         25.66136        50.50715         0.63385
C         24.35327        51.21253         0.35828
C         25.63360        53.05761        -0.77367
C         24.35613        52.49736        -0.40641
C         25.62554        54.22317        -1.74058
C         24.42233        55.13260        -1.66263
C         25.74239        56.93368        -2.71879
C         24.46585        56.37468        -2.27168
C         25.77132        58.16300        -3.38433
C         24.57961        58.84198        -3.74153
C         24.60442        60.04367        -4.47129
C         26.55282         8.76864        -3.34592
C         27.85270        10.83912        -2.86619
C         26.76342         9.92280        -2.40605
C         27.88468        12.17500        -2.56261
C         26.70665        12.78914        -1.91484
C         27.83283        14.93740        -1.38624
C         26.67101        14.14780        -1.55617
C         27.86765        16.33234        -1.39438
C         26.67550        17.04556        -1.09231
C         28.01714        19.04125        -0.50231
C         26.70696        18.38037        -0.66176
C         28.02098        20.48989        -0.23634
C         26.81487        21.12538         0.20273
C         28.09189        23.22908         0.51571
C         26.84845        22.51138         0.55310
C         28.11258        24.58222         0.92479
C         26.92071        25.30149         1.21583
C         28.21417        27.42700         1.46445
C         26.94766        26.71303         1.50477
C         28.21222        28.88073         1.52799
C         26.95532        29.55717         1.67605
C         28.21241        31.79091         1.49017
C         26.89872        31.04746         1.40135
C         28.22077        33.20840         1.53609
C         26.99842        33.96379         1.79214
C         28.17430        36.10553         1.61210
C         26.95014        35.35171         1.75949
C         28.18507        37.48050         1.58142
C         26.92360        38.19168         1.33750
C         28.22958        40.42866         1.37363
C         26.95332        39.68600         1.21304
C         28.21496        41.82791         1.23090
C         26.94321        42.54554         1.08595
C         28.20281        44.66700         0.59553
C         26.95069        43.91307         0.92988
C         28.22834        46.09658         1.11249
C         26.90460        46.86201         1.17715
C         28.16577        49.05917         0.82083
C         26.92825        48.30150         0.92408
C         28.11849        50.40961         0.20840
C         26.91459        51.09251         0.08732
C         28.10585        53.00318        -0.94425
C         26.84687        52.39527        -0.53719
C         28.11626        54.30835        -1.49372
C         26.93181        54.97761        -1.81663
C         26.94296        56.25390        -2.39066
C         28.99036        12.97143        -3.13193
C         30.42344        15.11388        -2.89082
C         29.52362        14.07176        -2.50368
C         30.37490        16.41337        -2.31229
C         29.06621        17.11218        -1.90004
C         30.39910        19.20691        -1.42302
C         29.26359        18.36071        -1.05590
C         30.31375        20.63457        -1.19191
C         29.19238        21.23115        -0.43616
C         30.52167        23.28199        -0.09385
C         29.27769        22.58890        -0.00965
C         30.64669        24.59650         0.56242
C         29.39593        25.27022         1.07488
C         30.70617        27.37581         1.38046
C         29.40033        26.72345         1.27410
C         30.68608        28.90406         1.46163
C         29.40424        29.61653         1.38767
C         30.63685        31.78641         1.13156
C         29.41868        31.07118         1.31466
C         30.64233        33.19862         1.08638
C         29.43686        33.90379         1.29395
C         30.68439        36.15781         1.10447
C         29.40822        35.37902         1.23465
C         30.74811        37.53917         1.65862
C         29.42832        38.26335         1.77034
C         30.67603        40.42881         1.58610
C         29.44530        39.73422         1.58248
C         30.67217        41.82222         1.38905
C         29.45475        42.53090         1.21305
C         30.64729        44.66477         0.80110
C         29.47881        43.94821         0.94314
C         30.63122        46.08874         0.52386
C         29.47331        46.81532         0.77981
C         30.66773        48.91173         0.08394
C         29.51402        48.27841         0.75671
C         30.57216        50.26539        -0.28430
C         29.35753        50.99640        -0.25823
C         29.31360        52.30849        -0.77564
C         31.49500        17.24575        -2.43660
C         32.75475        19.36031        -2.09387
C         31.53475        18.62760        -2.04199
C         32.86825        20.67775        -1.60561
C         31.63418        21.44107        -1.33712
C         32.97910        23.34817        -0.49111
C         31.69701        22.71884        -0.63235
C         33.06791        24.68526        -0.05668
C         31.78631        25.46515         0.07916
C         33.15194        27.41222         0.81651
C         31.93296        26.74920         0.84320
C         33.23040        28.83146         1.09758
C         31.93371        29.56597         1.00788
C         33.18321        31.74069         1.12522
C         31.89305        31.04159         0.85092
C         33.21502        33.19056         0.79529
C         31.90547        33.93271         0.77008
C         33.24228        36.14769         1.19732
C         31.98084        35.43761         0.87823
C         33.21495        37.53333         1.46734
C         32.01631        38.27243         1.53780
C         33.20953        40.45953         1.37228
C         31.99194        39.73971         1.93576
C         33.20245        41.79803         1.11925
C         31.95611        42.56077         1.36330
C         33.16082        44.65169         0.44501
C         31.95268        44.02793         1.03693
C         33.06722        45.99668         0.03569
C         31.86782        46.75054         0.14891
C         31.81910        48.13331        -0.15282
C         34.10165        21.30765        -1.36481
C         35.42830        23.28223        -0.70733
C         34.18617        22.63463        -0.85553
C         35.52331        24.62725        -0.26841
C         34.31062        25.34163         0.05450
C         35.60576        27.40038         0.44042
C         34.37284        26.71982         0.43611
C         35.67072        28.80872         0.73201
C         34.43928        29.50238         1.07840
C         35.74799        31.72102         1.29149
C         34.44935        30.96889         1.35361
C         35.72847        33.16669         1.19651
C         34.48253        33.92691         0.99970
C         35.80000        36.03651         1.48415
C         34.44973        35.31938         1.60711
C         35.81221        37.53958         1.46815
C         34.50775        38.26508         1.63827
C         35.71471        40.39963         0.87010
C         34.50523        39.74710         1.43498
C         35.60764        41.77625         0.53913
C         34.40806        42.50408         0.68262
C         34.33686        43.88361         0.34397
C         36.75641        25.31167        -0.20481
C         38.05405        27.38518         0.09737
C         36.82435        26.68975         0.11495
C         38.11912        28.79342         0.26223
C         36.88116        29.49436         0.55184
C         38.08441        31.67822         0.15053
C         36.98202        30.94188         0.82365
C         38.09764        33.18144         0.17986
C         36.88969        33.90717         0.69093
C         38.13885        36.04622         0.60069
C         36.97714        35.34524         0.93549
C         38.11500        37.48974         0.57558
C         36.97441        38.23714         0.87267
C         36.87108        39.64636         0.62817
C         39.35251        29.48762         0.21026
C         40.60559        31.76310        -0.05044
C         39.38334        30.92304        -0.06153
C         40.58750        33.12089         0.04272
C         39.37463        33.91914         0.16546
C         39.34685        35.29451         0.28161
O         21.37235        52.06988         0.81199
O         34.63465        39.15340         2.80258
O         18.14220        28.27444         3.59555
O         17.27461        40.43657         1.61401
O         38.41861        31.21875        -1.17659
O         23.17251        18.17141         1.97102
O         32.12080        43.56293         2.42461
O         19.01647        11.44626         0.84836
O         24.96025        48.68269         2.22686
O         29.83036        35.99465        -0.06240
O         25.02932        51.34918         1.64464
O         31.88737        34.76261        -0.42832
O         30.89150        28.09831         2.64914
O         12.81341        28.17381         3.11882
O         16.20200        22.52024         3.65719
O         22.74657        49.90821         1.75397
O         19.60467        21.35017         3.70243
O         18.64139        46.38977         1.64805
O         22.66392         8.18055        -4.01856
O         17.97788        15.05368        -1.00483
O         14.26977        39.09654        -2.02325
O         10.70382        36.95324         1.35366
O         23.07454        24.54025         3.38194
O         33.62889        31.41580         2.48755
O         34.01334        33.61672        -0.36411
O         20.18828        24.70380         3.89363
O         15.25153        36.69885         2.06953
O         26.21305        32.35408         3.44162
O         25.12447        44.21458        -0.62866
O         29.03568        14.28081        -1.18699
O          8.04287        32.40351         1.58189
O         15.81549        46.39295         0.89903
O         21.62624        33.56243         0.36667
O         36.79927        31.25093         2.23959
O         22.34929        31.43980         3.58321
O         17.80080        15.56236         2.57513
O         20.40384        31.05143         0.34126
O         31.81734        30.18776        -0.33757
O         30.65292        21.40703        -2.40474
O         21.64759        56.54981        -0.69536
O         28.95668        18.26542         0.35855
O         20.57230        50.38321        -2.19637
O         27.62378        46.36407         2.39359
O         14.45414        43.89669        -2.61944
O         21.11788        19.04844         3.01583
O         30.37321        24.58651         1.98098
O         37.10522        33.64906        -0.79430
O         20.90450        10.58825        -2.95715
O         19.72576        38.49244        -0.26469
O         13.42102        36.20351        -1.32338
O         17.42098        38.05174         2.40134
O         16.52821        28.85424         0.47138
O         21.91953         7.14307        -0.62881
O         36.13188        36.79406         2.70075
O         14.92996        34.05527        -0.59687
O         26.95639        38.83723        -0.00588
O         30.12627        37.75228         2.97398
O         29.07391        48.94108         1.97366
O         10.57869        26.73550        -0.49566
O         20.49370        36.93133         3.06011
O         20.36566        13.79666         1.44396
O         11.23831        33.58500         2.19933
O         16.35535        40.43189        -1.84999
O         12.32248        22.47460         2.79375
O         25.13361        15.83553        -2.54051
O         21.66929         9.59448         0.21195
H         21.66141         7.58635         0.21333
O         14.24589        42.09795         0.54632
H         14.84554        42.65645         1.08631
O         24.74830         7.72037        -1.00784
H         25.64888         8.05333        -0.77476
O         21.20591        14.48886        -2.04562
H         21.84891        14.25424        -2.74845
O         26.47360        31.16426        -0.00006
H         27.18701        30.80135        -0.56680
O         22.68617        23.52384        -0.15289
H         23.43509        23.97722        -0.59774
O         34.23822        35.05020         3.02304
H         34.70200        35.76779         3.51964
O          6.21137        30.67043         1.33128
H          6.48079        31.44622         1.88119
O         22.52101        20.64177        -0.68846
H         22.47817        21.62510        -0.78856
O         17.00340        17.82562         3.59898
H         17.58743        17.07806         3.86685
O         23.45195        55.19613         0.45915
H         22.92253        56.02737         0.53549
O         19.35315        48.92805         1.51087
H         18.85727        48.33888         2.12476
O         14.44342        26.38712         3.87949
H         13.90676        27.13760         4.22845
O         24.34806        34.06698         4.01024
H         24.82786        33.29885         4.40472
O         28.17742        44.82993        -0.86716
H         27.82522        44.00399        -1.26253
O         32.08346        39.80558         3.38455
H         32.99881        39.51849         3.62563
O         17.78690        42.52067        -2.12778
H         17.69732        41.65020        -2.57916
O         25.48659        53.56493        -3.06803
H         25.66284        54.25071        -3.74833
O         31.38339        25.86459        -1.28062
H         32.13845        26.33365        -1.69570
O         20.69186        47.95256        -1.72786
H         20.57967        48.62985        -2.44255
O         28.59418        17.65799        -3.17954
H         28.42797        16.91023        -3.79195
O         27.16386         9.32643        -1.10699
H         27.44733        10.06124        -0.52139
O         23.26331        28.87136         4.10791
H         23.00174        29.79237         4.35413
O         13.82839        41.40124        -3.02096
H         14.42539        40.63451        -3.18961
O         16.81112        52.04690        -3.56347
H         16.96863        52.93159        -3.95187
H          5.42159        30.79367        -1.37472
H          5.48336        33.20185        -1.76357
H          7.36359        26.75806         0.49199
H          6.41862        28.65548        -0.34275
H          6.49320        35.41409        -1.37572
H          7.56669        37.56805        -1.19729
H         10.04451        22.44670         0.48278
H          8.73275        24.39677         1.04873
H          8.76606        39.77032        -1.37777
H         10.03028        41.94870        -1.47793
H         12.53149        18.17352         0.79962
H         11.39718        20.26413         0.49069
H         11.26020        44.06114        -1.40166
H         12.51372        46.30839        -1.85520
H         14.74446        13.93860         0.73112
H         13.64286        16.08721         0.88754
H         13.74460        48.42997        -1.78952
H         14.95799        50.47922        -1.99897
H         17.09418         9.75790        -0.95348
H         15.89357        11.87872         0.03586
H         16.19485        52.67069        -1.66435
H         17.44606        54.71983        -2.72303
H         19.44570         6.14489        -3.24811
H         18.34019         7.95220        -2.37828
H         18.65395        56.73056        -3.24252
H         19.94575        58.67871        -4.09287
H         22.62626         3.26812        -5.39903
H         20.59301         4.20433        -4.34143
H         23.45833        61.60956        -5.43469
H         21.25339        60.59061        -4.91696
H         24.80504         4.43451        -5.30020
H         26.14250         6.44934        -4.61310
H         26.74117        58.59574        -3.67193
H         25.57220        60.48600        -4.74735
H         27.35267         8.50924        -4.05667
H         28.69154        10.39580        -3.42367
H         29.08292        54.80014        -1.68070
H         27.90621        56.74889        -2.58623
H         29.38797        12.64546        -4.10420
H         31.25460        14.88656        -3.57739
H         31.45818        50.75677        -0.71418
H         30.25004        52.78357        -1.10371
H         32.42151        16.81096        -2.84225
H         33.66840        18.82789        -2.39730
H         33.96830        46.49963        -0.34773
H         32.71407        48.62396        -0.56433
H         35.03278        20.76871        -1.59529
H         36.34832        22.74505        -0.98249
H         36.49845        42.29473         0.15274
H         35.24824        44.36843        -0.03919
H         37.68306        24.77565        -0.45891
H         38.97411        26.83393        -0.14737
H         39.01083        38.01364         0.20883
H         37.74318        40.15628         0.19056
H         40.29395        28.91895         0.22524
H         41.57552        31.24483        -0.09718
H         41.54661        33.66136         0.04825
H         40.28902        35.85822         0.19689
