         294
 CSIRO Nanostructure Databank - Neutral Graphene Oxide Data Set
C          1.23844         2.46863        -1.67170
C          1.20234         3.82501        -1.34216
C          2.37006         1.70130        -1.38865
C          2.29257         4.44245        -0.71034
C          0.98664         6.55597         0.03418
C          0.93231         7.71260         0.71289
C          2.26872         5.96223        -0.51600
C          2.12590         8.51727         1.19027
C          1.30132        10.49319        -0.19163
C          1.49220        11.77435        -0.72576
C          2.22635         9.93157         0.66534
C          2.69835        12.50702        -0.55034
C          1.85621        14.35778        -2.03445
C          1.81815        15.70073        -2.29610
C          2.84643        13.76106        -1.17763
C          2.68139        16.62472        -1.53767
C          2.76821        18.07206        -1.84896
C          3.47799         2.29150        -0.76798
C          3.44070         3.66177        -0.44299
C          4.68687         1.45504        -0.38720
C          4.62454         4.23482         0.31083
C          3.44259         6.47722         0.26895
C          3.46293         7.92814         0.59226
C          4.72536         5.75609         0.02644
C          4.67206         8.42000         1.43110
C          3.38453        10.77209         1.17588
C          3.75407        11.95813         0.29204
C          4.65120         9.95876         1.57773
C          4.97563        12.62308         0.47345
C          4.12645        14.53511        -1.02878
C          3.82423        16.00524        -0.80352
C          5.13785        13.96135        -0.05326
C          4.99359        16.86647        -0.43674
C          3.86934        18.81034        -1.57615
C          5.09996        18.22829        -1.04147
C          5.98485         2.23364        -0.48390
C          5.92656         3.54246        -0.08005
C          7.24112         1.59775        -0.84268
C          7.14680         4.35631        -0.16218
C          5.90330         6.39105         0.73130
C          5.97923         7.90367         0.76731
C          7.16769         5.64300         0.59230
C          7.28275         8.46492         1.31439
C          5.97621        10.66109         1.71632
C          6.10329        12.07068         1.23075
C          7.27151         9.84447         1.95410
C          7.29339        12.76243         1.39138
C          6.25156        14.71219         0.25973
C          6.21029        16.18858         0.08454
C          7.41600        14.13816         0.91943
C          7.48482        17.01771         0.13390
C          6.31034        18.83396        -1.17007
C          7.59118        18.03279        -1.01303
C          8.45803         2.26271        -0.85116
C          8.43700         3.71917        -0.59346
C          9.74354         1.66295        -1.18721
C          9.75426         4.46848        -0.41785
C          8.46217         6.32736         0.86538
C          8.45195         7.78748         1.12412
C          9.72560         5.59053         0.62174
C          9.73979         8.52882         0.97533
C          8.52017        10.64285         1.77255
C          8.51243        12.11641         2.08965
C          9.75464         9.97371         1.36564
C          9.81693        12.78710         1.65080
C          8.58980        14.86914         1.01535
C          8.78340        16.15672         0.24509
C          9.83069        14.30103         1.68252
C          9.81888        17.17180         0.87190
C          8.86515        18.81639        -0.82816
C          9.92958        18.36792        -0.09216
C         10.95328         2.28828        -0.95165
C         10.93535         3.53373        -0.07931
C         12.24213         1.75223        -1.36195
C         12.25636         4.33308        -0.21314
C         11.02291         6.30578         0.88755
C         11.07500         7.80808         0.69431
C         12.29960         5.58880         0.65924
C         12.30347         8.42167         1.42912
C         11.05245        10.63978         1.75749
C         10.94847        12.09766         1.39635
C         12.33370         9.93341         1.32262
C         12.17342        12.68246         0.74864
C         11.10446        14.93155         1.10417
C         11.17619        16.45300         1.24022
C         12.16284        14.18636         0.70404
C         12.41550        17.07869         0.58695
C         11.17891        19.08152        -0.19482
C         12.38440        18.46377         0.05353
C         13.45821         2.29276        -0.99786
C         13.48892         3.43891        -0.00553
C         14.74797         1.70898        -1.34692
C         14.75406         4.34070        -0.18863
C         13.56523         6.38956         0.68327
C         13.57443         7.72079         0.95921
C         14.77959         5.48767         0.83889
C         14.84786         8.50979         0.77572
C         13.50645        10.63271         1.28651
C         13.43774        12.14905         1.48070
C         14.81086         9.96733         1.18934
C         14.69772        12.83713         1.00412
C         13.38719        14.71924        -0.02627
C         13.54573        16.22199         0.12692
C         14.68719        14.04337         0.39030
C         14.65335        16.82273        -0.68224
C         13.61517        19.05933        -0.38694
C         14.72963        18.30515        -0.73184
C         15.94954         2.23432        -0.96081
C         16.04493         3.49967        -0.13296
C         17.24613         1.44055        -1.00736
C         17.22543         4.39458        -0.56455
C         16.10997         6.25145         0.94048
C         16.10211         7.73995         1.18055
C         17.36956         5.57401         0.42697
C         17.40723         8.50502         1.18903
C         15.97946        10.66977         1.30061
C         15.98130        12.15961         1.34935
C         17.35230        10.01956         1.42755
C         17.26804        12.92498         1.15865
C         15.93562        14.52506        -0.35287
C         15.88547        15.98577        -0.85976
C         17.21939        14.19820         0.37861
C         17.20050        16.64993        -1.27869
C         15.93105        18.89680        -1.20232
C         17.11047        18.17305        -1.38738
C         18.51878         2.28112        -0.97707
C         18.51473         3.62460        -0.71167
C         19.78677         1.62082        -1.20301
C         19.74778         4.41878        -0.90353
C         18.62637         6.38366         0.29692
C         18.66632         7.83386         0.71162
C         19.77407         5.88799        -0.53078
C         19.81161         8.64128         0.21882
C         18.32389        10.79125         0.44961
C         18.60425        12.16586         1.09600
C         19.62327        10.09330         0.01896
C         19.61555        13.04607         0.42223
C         18.34320        15.04772         0.28690
C         18.36778        16.24720        -0.41179
C         19.59986        14.46665         0.93648
C         19.50740        17.24030        -0.27201
C         18.30947        18.80933        -1.76364
C         19.55115        18.20567        -1.44861
C         20.98087         2.29463        -1.18633
C         21.03420         3.72175        -1.01965
C         22.20601         4.46136        -0.93804
C         21.07018         6.57446        -0.36013
C         21.00558         8.02245        -0.13695
C         22.21937         5.85602        -0.64474
C         22.17697         8.84869        -0.34770
C         20.85430        10.93751        -0.32133
C         20.84426        12.48174        -0.26249
C         22.13349        10.20581        -0.33915
C         22.08974        13.08605         0.35387
C         20.89444        15.22050         0.66641
C         20.86146        16.59438         0.04478
C         22.11850        14.38313         0.68775
C         22.07007        17.10210        -0.63167
C         20.74898        18.61740        -2.00860
C         21.99806        18.05419        -1.60304
O         13.57920        16.78467         1.47013
O          9.60568         9.58093        -0.06372
O          6.38972         5.63583         1.84833
O         16.63011        12.87560         2.47669
O          9.07948         5.44904         1.90867
O         18.37944         7.94734         2.13889
O          9.29635        17.63193         2.07259
O         15.07117         8.57312        -0.73248
O          7.59860         4.46511        -1.56395
O         13.19980        14.41161        -1.40204
O          5.21756        16.79514         1.01109
O         14.91567        16.15014        -1.94800
O         19.94834        10.46685        -1.37980
O         11.69220         5.62825         1.99110
O          2.62715        16.32411        -0.06904
O         19.52987         5.50874        -1.92303
O         16.10951         6.82545         2.29779
O         18.41558         5.44514         1.41520
O          5.09966        10.44463         2.87852
O         21.03353        16.41344         1.50988
O          4.60072         7.82625         2.72253
H          5.25844         8.27304         3.30102
O         13.90854         9.20303        -1.31621
H         14.18600        10.14648        -1.42216
O         17.48807        16.17990        -2.62701
H         16.61955        16.04392        -3.06873
O          7.38688        17.84882         1.29576
H          6.98347        17.34733         2.03701
O          5.01990         5.92331        -1.41028
H          4.15355         5.91098        -1.90006
O         10.73182         3.09620         1.27201
H         11.57008         2.67096         1.57302
O          7.69161        17.31420        -2.29374
H          7.85372        17.97677        -2.99811
O         11.08907        10.59249         3.22321
H         11.79649        11.23075         3.49679
O          4.50773         1.07852         0.99868
H          5.31884         0.61594         1.29516
O         16.97109         4.91771        -1.88352
H         17.82728         5.27119        -2.23690
O         17.53074        10.98712        -0.73431
H         18.14427        11.07929        -1.50014
O          2.39865         6.47639        -1.90584
H          2.51748         7.45568        -1.81773
O         12.34121         4.75580        -1.58670
H         12.00198         5.67306        -1.67429
O         13.46244         2.81032         1.29874
H         13.51930         3.53560         1.97520
O          9.98654         5.15533        -1.66459
H          9.11473         5.22923        -2.12208
O          6.03209         8.32951        -0.64199
H          6.03380         7.51041        -1.20411
O         19.24381        11.91651         2.36326
H         19.22223        12.76775         2.86564
O         12.19638         8.12326         2.84186
H         11.72536         8.87009         3.28938
O         15.91004        13.70783        -1.56168
H         14.99640        13.87067        -1.92886
O          9.71753        14.64151         3.10020
H         10.10356        15.55501         3.21366
O         11.32509         7.90863        -0.72645
H         11.13272         8.83352        -1.00652
O          8.33002        12.28763         3.52548
H          8.71887        13.17034         3.75243
O         17.65979        10.21995         2.80904
H         18.26846         9.49880         3.09400
O         20.83680        12.94434        -1.64775
H         20.25985        12.32706        -2.15229
O         13.26265        12.40140         2.90537
H         14.14706        12.35448         3.32991
O          2.84334        11.34269         2.40687
H          3.61843        11.55072         2.98498
O         19.40842        14.50214         2.38064
H         19.76324        15.36851         2.68593
O         17.24847         0.58675         0.15377
H         17.11200         1.18022         0.92906
O         12.20538        12.15945        -0.59745
H         12.51491        12.91480        -1.19161
O          3.47401         8.62862        -0.70805
H          4.41691         8.65794        -1.03063
O          2.10094         8.52089         2.61503
H          2.41278         9.39526         2.94131
O         11.34026        16.68651         2.66642
H         12.29776        16.55893         2.86423
O         19.16519        18.09316         0.86615
H         19.65363        17.73747         1.64474
O         14.67741         5.00932        -1.44317
H         14.61448         4.34978        -2.16395
O         16.30606         3.06745         1.22172
H         15.44277         2.76720         1.59578
O          7.32004         9.55127         3.39804
H          7.48775        10.40792         3.86013
O          4.80187        14.50684        -2.33565
H          5.02179        13.57419        -2.54379
O         14.57859         4.90624         2.15406
H         14.79973         5.61008         2.81112
O          4.35371         4.03059         1.70983
H          4.28812         3.05843         1.85099
O          9.30457        15.71016        -1.00872
H          8.93860        16.25503        -1.74961
H          0.37221         2.00450        -2.16353
H          0.31062         4.41677        -1.59294
H          2.39209         0.63279        -1.64780
H          0.04311         6.04084        -0.20755
H         -0.05018         8.07481         1.05825
H          0.40038         9.92464        -0.46577
H          0.69345        12.20019        -1.34651
H          1.09405        13.71593        -2.50149
H          1.07615        16.11139        -2.99606
H          1.89991        18.54731        -2.33057
H          4.73027         0.52404        -1.02016
H          3.89252        19.87529        -1.85365
H          7.21569         0.52238        -1.08171
H          6.37472        19.83165        -1.63427
H          9.72895         0.67330        -1.67305
H          8.99353        19.72041        -1.44804
H         12.23226         0.86462        -2.01719
H         11.17666        20.06406        -0.69338
H         14.73860         0.75604        -1.90312
H         13.63380        20.14687        -0.55788
H         17.27122         0.77339        -1.90781
H         15.96934        19.99383        -1.29485
H         19.77966         0.53284        -1.36188
H         18.28613        19.79858        -2.24898
H         21.92430         1.74558        -1.32167
H         23.17118         3.94849        -1.05964
H         23.20093         6.34757        -0.58203
H         23.15175         8.35166        -0.45100
H         23.07563        10.76674        -0.40791
H         23.00397        12.48396         0.44920
H         23.03882        14.84177         1.07845
H         23.04054        16.68958        -0.32314
H         20.73935        19.36549        -2.81437
H         22.91795        18.40503        -2.09134
