         404
 CSIRO Nanostructure Databank - Neutral Graphene Oxide Data Set
C          1.46198         2.14383         2.11862
C          1.38596         3.53387         1.85478
C          2.64942         1.46381         1.98147
C          2.49780         4.24944         1.42005
C          1.37510         6.45558         1.81129
C          1.27698         7.78499         1.63177
C          2.47828         5.69485         1.24878
C          2.23647         8.53301         0.74148
C          1.11967        10.74514         1.11876
C          1.13428        12.09025         1.03458
C          2.40694         9.96901         1.23617
C          2.37299        12.83021         0.87742
C          1.24391        15.02142         1.49353
C          1.28822        16.39380         1.67757
C          2.39290        14.26866         1.07408
C          2.50646        17.11339         1.60968
C          2.61778        18.50387         1.82307
C          3.82174         2.14215         1.51922
C          3.73768         3.54647         1.19703
C          5.02989         1.46260         1.34327
C          4.85344         4.21871         0.68233
C          3.55011         6.37184         0.66594
C          3.55034         7.79884         0.54291
C          4.69749         5.59180         0.07509
C          4.67732         8.50850         0.11234
C          3.55779        10.68356         0.56014
C          3.54813        12.12761         0.54392
C          4.64694         9.96302         0.09951
C          4.74880        12.83706         0.14428
C          3.58868        14.95768         0.85979
C          3.72309        16.33758         1.33814
C          4.70342        14.31023         0.17669
C          5.03423        17.07375         1.18309
C          3.82639        19.18731         1.70599
C          5.04095        18.54279         1.35064
C          6.17984         2.12623         0.85043
C          6.08762         3.53466         0.50862
C          7.39861         1.43885         0.71473
C          7.20916         4.22489         0.00016
C          5.99291         6.36678        -0.00868
C          5.93262         7.80266        -0.16914
C          7.19204         5.65485        -0.17079
C          7.08707         8.49696        -0.51705
C          5.78617        10.70283        -0.49478
C          5.88072        12.16965        -0.29833
C          7.03612         9.93405        -0.84254
C          7.15131        12.85684        -0.53738
C          6.02797        15.07500        -0.06152
C          6.17419        16.44385         0.48838
C          7.22215        14.26390        -0.28658
C          7.37415        17.11164         0.50302
C          6.27161        19.19725         1.27558
C          7.46979        18.47573         0.99993
C          8.54607         2.06646         0.18106
C          8.41215         3.44944        -0.33005
C          9.78583         1.43045         0.15354
C          9.68889         4.20669        -0.68346
C          8.45578         6.36110        -0.36430
C          8.41145         7.84890        -0.37884
C          9.63705         5.68125        -0.57675
C          9.67698         8.62315        -0.67476
C          8.29364        10.69364        -1.20738
C          8.29422        12.15540        -0.99609
C          9.61229         9.95993        -1.37298
C          9.58372        12.87641        -1.20394
C          8.49457        14.97388        -0.36047
C          8.60636        16.44671         0.02662
C          9.72928        14.14097        -0.40267
C          9.88651        16.97740         0.51991
C          8.74015        19.03489         1.19025
C          9.91980        18.24592         1.07432
C         10.99541         2.11517        -0.18004
C         10.98030         3.50108        -0.52345
C         12.24094         1.46713        -0.03923
C         12.19516         4.16262        -0.76416
C         10.94082         6.37830        -0.61522
C         10.98342         7.88122        -0.67698
C         12.14905         5.61701        -1.07511
C         12.22984         8.58871        -1.05269
C         10.94797        10.66696        -1.79355
C         10.86908        12.18490        -1.54462
C         12.22352        10.01778        -1.26646
C         12.17737        12.93503        -1.40718
C         11.05184        14.75242        -0.05832
C         11.11941        16.10227         0.66732
C         12.26587        14.23975        -0.73666
C         12.38601        16.88401         0.41520
C         11.21569        18.77114         1.65258
C         12.44301        18.17069         1.00045
C         13.46860         2.09415        -0.32430
C         13.43593         3.47502        -0.76269
C         14.67011         1.36460         0.04209
C         14.65062         4.24568        -0.96867
C         13.42254         6.40714        -1.17956
C         13.43497         7.88312        -1.04541
C         14.69096         5.68899        -0.99664
C         14.69307         8.55318        -1.08983
C         13.42208        10.69434        -1.30458
C         13.48469        12.15184        -1.48877
C         14.71021        10.03692        -0.84864
C         14.73925        12.86419        -1.19921
C         13.47312        14.92930        -0.70899
C         13.53764        16.28532        -0.14632
C         14.70389        14.24875        -1.06899
C         14.76657        16.97885        -0.06677
C         13.66536        18.82010         1.12512
C         14.85351        18.20891         0.64705
C         15.93003         1.59688        -0.50104
C         15.86599         3.60744        -1.17542
C         17.22377         1.29792        -0.00218
C         17.14205         4.20082        -0.83847
C         15.88491         6.40131        -1.05045
C         15.89736         7.84049        -1.16416
C         17.16891         5.71955        -0.82704
C         17.15372         8.52594        -1.37643
C         15.96523        10.71110        -1.36640
C         15.98319        12.15337        -1.37488
C         17.11389         9.95723        -1.60124
C         17.18971        12.87765        -1.48959
C         15.95822        15.00079        -1.21601
C         15.98924        16.45799        -0.69748
C         17.24295        14.29889        -1.34316
C         17.30189        16.98896        -0.34092
C         16.12290        18.77583         0.91158
C         17.33041        18.16033         0.50386
C         18.40471         2.01322        -0.35808
C         18.39406         3.38540        -0.97350
C         19.64833         1.48380        -0.01247
C         19.66422         4.20716        -0.98200
C         18.43246         6.40947        -1.15303
C         18.36207         7.79704        -1.47561
C         19.64390         5.69393        -1.08625
C         19.60621         8.42968        -1.97012
C         18.31826        10.64529        -2.10908
C         18.38326        12.15436        -1.94913
C         19.61985         9.90366        -2.24705
C         19.69041        12.82564        -1.83920
C         18.46192        15.02739        -1.39518
C         18.48762        16.39552        -0.84486
C         19.67004        14.24220        -1.71698
C         19.70227        17.14305        -0.55637
C         18.55668        18.71765         0.91969
C         19.76663        18.22280         0.39485
C         20.88446         2.19436        -0.14311
C         20.91033         3.57124        -0.53202
C         22.09461         1.55278         0.16739
C         22.11107         4.30791        -0.52848
C         20.90252         6.36597        -1.15061
C         20.92969         7.73760        -1.69604
C         22.11724         5.71397        -0.88271
C         22.17713         8.53970        -1.60054
C         20.93884        10.64723        -2.20274
C         20.91747        12.12432        -1.97459
C         22.18068         9.89758        -1.85401
C         22.15121        12.80743        -1.83607
C         20.91966        14.84892        -1.94926
C         20.92237        16.88113        -1.19886
C         22.16218        14.21793        -1.77438
C         22.17197        17.26186        -0.73466
C         21.01393        18.84347         0.69236
C         22.23127        18.36340         0.17133
C         23.32756         2.23903         0.07339
C         23.33823         3.63862        -0.25241
C         24.54618         1.55696         0.27363
C         24.57353         4.34163        -0.34406
C         23.36883         6.44278        -0.94172
C         23.39957         7.82914        -1.26070
C         24.58866         5.74323        -0.66073
C         24.64471         8.55367        -1.19934
C         23.50348        10.58241        -2.15233
C         23.45848        12.11603        -2.03373
C         24.69285         9.95177        -1.45417
C         24.72166        12.88332        -1.73070
C         23.34131        14.98451        -1.15543
C         23.37533        16.52916        -1.23421
C         24.68076        14.32248        -1.37653
C         24.67309        17.19967        -0.92334
C         23.49764        19.00035         0.37831
C         24.66964        18.49489        -0.18642
C         25.78096         2.22289         0.13500
C         25.79078         3.63440        -0.14960
C         27.00011         1.51556         0.26505
C         27.04236         4.30693        -0.27922
C         25.83647         6.43622        -0.68865
C         25.85198         7.85199        -0.89718
C         27.06398         5.72960        -0.50928
C         27.08085         8.57081        -0.80863
C         25.90212        10.67830        -1.27795
C         25.95204        12.12626        -1.41133
C         27.08644         9.97968        -0.92101
C         27.14606        12.83777        -1.21979
C         25.88390        15.00065        -1.16984
C         25.92612        16.41544        -0.90298
C         27.14395        14.28602        -1.20494
C         27.13096        17.09157        -0.72048
C         25.91310        19.13774        -0.01141
C         27.12856        18.50286        -0.34995
C         28.24050         2.15790         0.08035
C         28.23784         3.55903        -0.20985
C         29.46853         1.44691         0.26850
C         29.50461         4.23739        -0.48267
C         28.30702         6.43693        -0.54202
C         28.31895         7.85422        -0.64222
C         29.54171         5.70363        -0.45531
C         29.56437         8.56939        -0.71397
C         28.32774        10.72197        -0.49531
C         28.38634        12.14686        -0.96381
C         29.60830         9.96083        -0.73934
C         29.60720        12.80572        -1.01727
C         28.35120        14.99466        -1.11727
C         28.38170        16.39929        -0.87281
C         29.61850        14.25602        -1.28228
C         29.61131        17.10203        -0.69165
C         28.34945        19.17920        -0.21256
C         29.58876        18.51393        -0.37096
C         30.72452         2.06826         0.20735
C         30.80806         3.46471        -0.27345
C         31.92520         1.42712         0.56012
C         32.01743         4.24680         0.02347
C         30.77830         6.34891        -0.40613
C         30.81838         7.79141        -0.73741
C         31.98643         5.64284        -0.11041
C         32.10580         8.54989        -0.60825
C         30.85369        10.69418        -0.72905
C         30.85935        12.11951        -0.81599
C         32.08538        10.01757        -0.56710
C         32.10080        12.82846        -0.70823
C         30.92371        15.00658        -1.08711
C         30.86217        16.43468        -0.73538
C         32.13831        14.24978        -0.73793
C         32.06453        17.10350        -0.42676
C         30.79723        19.20088        -0.16719
C         32.03835        18.52605        -0.18009
C         33.16750         2.12484         0.59964
C         33.19932         3.55758         0.42492
C         34.37467         1.44083         0.83674
C         34.42733         4.26662         0.59408
C         33.19179         6.39806         0.29224
C         33.25532         7.88776         0.06837
C         34.46091         5.68735         0.48827
C         34.55165         8.56677         0.01744
C         33.31505        10.69918        -0.41653
C         33.33176        12.12119        -0.48916
C         34.55817         9.97672        -0.23610
C         34.56719        12.82606        -0.36340
C         33.33063        14.95675        -0.47587
C         33.30780        16.39173        -0.36036
C         34.57064        14.24977        -0.33233
C         34.51056        17.08682        -0.08958
C         33.24549        19.20763         0.05820
C         34.47696        18.52101         0.09931
C         35.61106         2.12502         0.93856
C         35.63315         3.55931         0.86894
C         36.83086         1.42105         1.09313
C         36.84996         4.27250         1.07547
C         35.66747         6.41028         0.60100
C         35.72016         7.83410         0.34202
C         36.88382         5.71669         0.92302
C         36.98269         8.49206         0.30197
C         35.77877        10.68329        -0.23240
C         35.80897        12.10849        -0.26395
C         37.02600         9.88942        -0.17324
C         37.03945        12.84102        -0.19241
C         35.79128        14.96519        -0.14615
C         35.75076        16.38636         0.00379
C         37.04001        14.25688        -0.08341
C         36.95989        17.10739         0.26125
C         35.67260        19.21579         0.36044
C         36.90876        18.54740         0.44881
C         38.03949         2.11034         1.25372
C         38.03050         3.53505         1.31508
C         39.29839         1.40860         1.37580
C         39.26868         4.22954         1.66871
C         38.09647         6.43389         0.99823
C         38.17415         7.81238         0.61907
C         39.30468         5.76874         1.50393
C         39.45073         8.51812         0.68645
C         38.34253        10.61778        -0.11864
C         38.32401        12.11907        -0.21800
C         39.50978         9.92044         0.46275
C         39.58107        12.87590         0.22001
C         38.25765        14.99830         0.18832
C         38.18791        16.42475         0.32870
C         39.46875        14.31891         0.49327
C         39.41504        17.20633         0.54652
C         38.07166        19.26790         0.78894
C         39.31735        18.62813         0.91895
C         40.48822         2.07156         1.50300
C         40.54137         3.50270         1.61121
C         41.73051         4.22042         1.64716
C         40.61860         6.40089         1.33984
C         40.64401         7.82186         1.05392
C         41.76298         5.63030         1.52484
C         41.84579         8.55362         1.19415
C         40.68533        10.65194         0.77636
C         40.68308        12.10468         0.82128
C         41.85803         9.93219         1.10764
C         41.66498        12.80516         1.50896
C         40.60210        14.97056         1.06372
C         40.69513        16.44791         1.00915
C         41.65817        14.21174         1.57221
C         41.64209        17.20476         1.81578
C         40.44834        19.29544         1.41570
C         41.56937        18.57906         1.88856
O          8.71229        10.09537        -2.50410
O          5.00702        14.96333        -1.11190
O         20.91061        16.16191        -2.39037
O         40.51542        16.92757        -0.36138
O         30.41486        14.68361        -2.43643
O         39.29583        12.57948        -1.19858
O          8.56313        16.03826        -1.38584
O         15.90957         2.33279        -1.72095
O         11.20254         7.16020         0.59978
O         20.32496        10.23377        -3.47015
O         12.88178        12.77678        -2.67222
O         24.08414        17.19489        -2.30176
O         32.90048         7.36250         1.39679
O         19.10719         3.55014        -2.21778
O          6.02681        10.24672        -1.87382
O          9.13536         8.62342         0.68534
O         31.70426         8.01541        -1.91123
O         15.83363        16.14332        -2.11552
O         39.12513         5.13324         2.81143
O         10.06885        12.86761        -2.58093
O         37.87817        10.01870        -1.37839
O          4.72541        16.37858         2.45742
O         20.29041         7.70611        -3.02850
O         12.65764         5.97547        -2.38944
O         17.15430         4.94796         0.43362
O         18.10152        11.51371        -3.25168
O         24.21213        12.70829        -3.15139
O          8.83806         3.63223        -1.72892
O         30.26360         3.66074        -1.61157
O         10.37919        13.77841         0.86428
O         11.06889        10.48495        -3.21278
H         10.40093        11.06982        -3.63780
O         23.07390        14.80075         0.29348
H         23.16018        13.84649         0.50363
O         11.24718        18.44928         3.05583
H         11.24845        17.46335         3.11305
O          1.62026         8.61832        -0.57755
H          1.64527         7.72451        -0.97995
O         14.75461        10.22051         0.62077
H         14.04699         9.66031         1.00695
O          4.30625         5.35223        -1.33341
H          5.04414         4.86876        -1.76401
O         23.72540        10.26573        -3.55854
H         24.11406        11.07290        -3.97546
O         28.21802        10.82399         0.98977
H         28.19617         9.90681         1.33865
O         11.19536        15.80308         2.10637
H         10.72071        14.94674         2.24079
O          2.73446         9.89175         2.65768
H          2.79812        10.80854         2.99868
H          0.55945         1.61576         2.45670
H          0.42027         4.03614         2.00043
H          2.71055         0.39023         2.21037
H          0.63191         5.93584         2.43178
H          0.44141         8.33847         2.08352
H          0.16309        10.20877         1.19052
H          0.18474        12.64383         1.02822
H          0.27927        14.51010         1.61093
H          0.36321        16.93641         1.92216
H          1.70978        19.06887         2.08090
H          5.08976         0.38880         1.57457
H          3.84486        20.27284         1.88191
H          7.46669         0.39311         1.04953
H          6.33650        20.26857         1.51732
H          9.85472         0.38556         0.49137
H          8.82559        20.06651         1.56193
H         12.24980         0.42074         0.30053
H         11.24639        19.88742         1.57039
H         14.56924         0.61811         0.84479
H         13.72665        19.78570         1.64734
H         17.32681         0.48331         0.73126
H         16.17703        19.70547         1.49656
H         19.69094         0.46413         0.39905
H         18.56014        19.57961         1.60165
H         22.08970         0.49065         0.45227
H         21.01743        19.72331         1.35157
H         24.53234         0.48134         0.50277
H         23.54099        19.92789         0.96831
H         26.97351         0.44084         0.49733
H         25.94221        20.14150         0.43864
H         29.41301         0.38884         0.56542
H         28.34736        20.24308         0.06747
H         31.90874         0.35949         0.82534
H         30.77483        20.27992         0.04540
H         34.36186         0.34482         0.93060
H         33.22958        20.29417         0.22868
H         36.82496         0.32117         1.09025
H         35.63986        20.30454         0.51394
H         39.28503         0.31046         1.31982
H         37.99236        20.34465         1.00007
H         41.43288         1.50902         1.53631
H         42.68512         3.67488         1.67118
H         42.75291         6.10355         1.46762
H         42.77957         8.03283         1.44228
H         42.80279        10.46653         1.27180
H         42.49457        12.27028         1.99004
H         42.51726        14.71414         2.03626
H         42.40661        16.67172         2.39785
H         40.38984        20.37822         1.59668
H         42.35031        19.12849         2.43358
