         340
 CSIRO Nanostructure Databank - Neutral Graphene Oxide Data Set
C          1.68120         1.98559         1.93197
C          1.63805         3.40638         1.90956
C          2.78752         1.30876         1.48376
C          2.71753         4.16975         1.49683
C          1.31531         6.25762         1.01752
C          1.24779         7.65404         0.88699
C          2.53846         5.63804         1.35776
C          2.39301         8.46279         0.87616
C          1.17193        10.64421         0.28825
C          1.16729        11.98829         0.09723
C          2.34851         9.96844         0.93895
C          2.32893        12.80456         0.34453
C          1.13492        14.99448         0.27602
C          1.17788        16.35831         0.32871
C          2.33632        14.19778         0.32649
C          2.42755        17.07134         0.46420
C          2.44449        18.51756         0.56191
C          3.93560         2.01947         1.00435
C          3.92559         3.47821         1.04870
C          5.08040         1.31162         0.61385
C          5.08207         4.12298         0.59166
C          3.62911         6.50503         1.50262
C          3.67403         7.85027         1.05438
C          5.42873         5.46803         0.93033
C          4.89411         8.49985         0.63256
C          3.64380        10.61497         0.49603
C          3.65432        12.11470         0.62527
C          4.81695         9.88608         0.31457
C          4.73640        12.77971        -0.24753
C          3.61573        14.92250         0.33468
C          3.61566        16.36098         0.47697
C          4.79111        14.25278         0.06781
C          4.92014        17.06149         0.76275
C          3.61357        19.22247         0.57612
C          4.89110        18.55555         0.52957
C          6.22961         1.94964         0.05936
C          6.10116         3.40499        -0.19987
C          7.39653         1.29211        -0.28432
C          7.21769         4.19408        -0.80914
C          6.24018         6.31196         0.23361
C          6.26151         7.78420         0.64029
C          7.21713         5.74841        -0.79450
C          7.37027         8.51999        -0.08321
C          5.98612        10.57360        -0.40164
C          6.02539        12.04227        -0.12979
C          7.31915         9.89908        -0.21079
C          7.28374        12.72806         0.09898
C          6.03971        14.97797        -0.34820
C          6.11128        16.41814         0.09057
C          7.30625        14.25454         0.08283
C          7.28341        17.09734        -0.03605
C          6.07696        19.23270         0.38281
C          7.33491        18.54097         0.19668
C          8.58044         1.98295        -0.74309
C          8.51570         3.45699        -1.01967
C          9.77722         1.32207        -0.84157
C          9.80129         4.22211        -0.92527
C          8.57674         6.36432        -0.50309
C          8.59371         7.80132        -0.31297
C          9.75225         5.66811        -0.59919
C          9.79508         8.49782        -0.56037
C          8.51409        10.66449        -0.42766
C          8.54825        12.04400        -0.22797
C          9.74687         9.94719        -0.75666
C          9.78918        12.78299        -0.20805
C          8.57940        14.93753        -0.19069
C          8.51854        16.40179        -0.57253
C          9.77229        14.24614        -0.15707
C          9.80082        17.12036        -0.24457
C          8.53709        19.21315         0.12221
C          9.79556        18.51956        -0.03977
C         11.06278         2.03740        -1.18806
C         11.04442         3.43101        -0.51100
C         12.32972         1.32264        -0.79500
C         12.34145         4.17194        -0.76409
C         11.03170         6.37536        -0.38213
C         11.04709         7.83389        -0.57891
C         12.34103         5.62950        -0.50320
C         12.28173         8.52924        -0.62352
C         11.07474        10.72262        -0.69529
C         11.01150        12.12407        -0.30954
C         12.32655         9.95598        -0.54382
C         12.28458        12.80190         0.11714
C         11.04003        14.96463        -0.23575
C         11.02304        16.40101        -0.24143
C         12.26349        14.28269        -0.17238
C         12.26084        17.11073        -0.19054
C         11.02279        19.21427         0.07484
C         12.25615        18.54733        -0.03279
C         13.52158         2.02672        -0.82518
C         13.50173         3.49183        -0.96757
C         14.77477         1.41070        -0.55720
C         14.77594         4.24046        -1.30931
C         13.55780         6.39880        -0.76120
C         13.53197         7.79329        -0.72526
C         14.84146         5.61555        -0.64063
C         14.75780         8.53308        -0.84434
C         13.54205        10.65322        -0.44315
C         13.55215        12.09617        -0.32162
C         14.77539         9.91584        -0.64086
C         14.73636        12.82127        -0.36781
C         13.49174        14.99311        -0.24472
C         13.47830        16.40027        -0.27342
C         14.75728        14.26283        -0.30267
C         14.74553        17.16825        -0.53806
C         13.49390        19.23857         0.11842
C         14.72785        18.58236        -0.00425
C         16.00382         2.11647        -0.57501
C         16.05997         3.50134        -0.97676
C         17.18057         1.47300        -0.12614
C         17.27495         4.17998        -1.08904
C         16.08339         6.35188        -1.09143
C         15.98683         7.82864        -1.38184
C         17.27458         5.66703        -1.26621
C         17.25349         8.57371        -1.07239
C         16.01859        10.64665        -0.68669
C         16.02686        12.06448        -0.17790
C         17.21979         9.98684        -0.90167
C         17.28273        12.81619        -0.51191
C         15.96339        14.97463        -0.30312
C         15.99785        16.39979        -0.20372
C         17.26357        14.30384        -0.65014
C         17.19993        17.08723        -0.00470
C         15.95206        19.23294         0.18969
C         17.19913        18.53657         0.14031
C         18.43127         2.11432        -0.22610
C         18.47964         3.40927        -0.85380
C         19.65152         1.49654         0.16184
C         19.75864         3.84499        -1.24067
C         18.49605         6.47374        -1.31696
C         18.46620         7.88338        -1.04533
C         19.77691         5.92611        -1.54328
C         19.71432         8.60174        -0.83717
C         18.49771        10.74557        -1.15197
C         18.47977        12.15895        -0.63835
C         19.74632         9.97446        -0.82167
C         19.73089        12.85312        -0.45740
C         18.49269        14.96067        -0.07547
C         18.45849        16.37747         0.13346
C         19.68452        14.22711        -0.06021
C         19.64801        17.09965         0.33212
C         18.40817        19.22192         0.28023
C         19.66146        18.53713         0.33304
C         20.89130         2.15225         0.03391
C         20.96174         3.42442        -0.64076
C         22.11266         1.56025         0.45937
C         22.16730         4.22045        -0.65707
C         20.98816         6.42567        -1.04425
C         20.99130         7.84876        -0.52976
C         22.17524         5.65917        -0.87926
C         22.20354         8.56520        -1.10307
C         20.99495        10.70883        -0.66847
C         20.96907        12.13805        -0.47192
C         22.21155        10.02307        -0.71673
C         22.20600        12.82656        -0.30553
C         20.93162        14.86763         0.37384
C         20.91441        16.39217         0.54494
C         22.20911        14.22645         0.02657
C         22.17838        17.11613         0.38406
C         20.88339        19.22337         0.42581
C         22.14570        18.54819         0.41592
C         23.31647         2.24395         0.32215
C         23.35090         3.60739        -0.15672
C         24.54436         1.60339         0.70669
C         24.58408         4.33225        -0.11560
C         23.42482         6.39326        -0.72819
C         23.47151         7.81538        -0.78487
C         24.63080         5.67677        -0.49635
C         24.69107         8.53827        -0.75206
C         23.46050        10.69815        -0.60587
C         23.44983        12.11989        -0.41332
C         24.69214         9.98541        -0.68134
C         24.67578        12.82303        -0.37089
C         23.38178        14.97600         0.02828
C         23.38904        16.41005         0.23024
C         24.63106        14.29606        -0.35548
C         24.62467        17.13845         0.26909
C         23.36380        19.24931         0.47472
C         24.60502        18.55966         0.47221
C         25.73792         2.28429         0.75239
C         25.79068         3.70638         0.42518
C         26.96280         1.61802         1.11933
C         26.90871         4.45088         0.71886
C         26.00724         6.30182        -0.68436
C         25.95575         7.79907        -1.07430
C         26.87969         5.96451         0.53174
C         27.31044         8.54918        -0.91946
C         25.93176        10.70579        -0.57269
C         25.91565        12.14046        -0.43584
C         27.17545        10.02173        -0.55005
C         27.16079        12.86483        -0.35678
C         25.93064        15.05492        -0.22490
C         25.88088        16.46122         0.23079
C         27.18188        14.28947        -0.13208
C         27.06264        17.12865         0.52463
C         25.82952        19.24807         0.64112
C         27.05735        18.55386         0.70255
C         28.10137         2.32779         1.38056
C         28.03128         3.83309         1.52082
C         29.35627         1.65774         1.62100
C         29.36214         4.51321         1.32572
C         28.24198         6.61767         0.45455
C         28.35625         7.87993        -0.04432
C         29.37100         6.01961         1.27796
C         29.60279         8.63135         0.08524
C         28.38120        10.73699        -0.38569
C         28.37760        12.15280        -0.35419
C         29.63482        10.00806        -0.17333
C         29.66769        12.91804        -0.49948
C         28.36766        14.97101         0.17488
C         28.32190        16.34837         0.80445
C         29.61870        14.32080         0.07029
C         29.58278        17.14541         0.59407
C         28.29069        19.23938         0.84198
C         29.53744        18.56422         0.72162
C         30.51767         2.35937         1.67221
C         30.53318         3.79940         1.47700
C         31.80839         4.46743         1.41344
C         30.72185         6.59476         0.91651
C         30.79763         7.93023         0.47713
C         31.88752         5.80682         1.12988
C         32.04222         8.63687         0.40413
C         30.87032        10.73431        -0.04027
C         30.89523        12.15102        -0.07218
C         32.07222         9.98415         0.17294
C         32.06163        12.89937         0.18965
C         30.83010        15.02052         0.26739
C         30.81414        16.47931         0.43893
C         32.04523        14.28784         0.28286
C         32.00228        17.24353         0.38972
C         30.75404        19.29664         0.69066
C         31.96392        18.63504         0.52459
O          4.78928         5.97644         2.08405
O         25.55308         7.88671        -2.45643
O          6.12244         3.71233        -1.66222
O          7.28083        13.56332         1.35357
O         11.74478         5.92549         0.84984
O          9.22044         3.89180        -2.23742
O         10.40650        10.42119        -1.97095
O         20.89497        15.47178         1.70112
O         25.27790        14.89937        -1.54077
O         19.83351         4.75351        -2.30248
O          6.03370        14.93908        -1.81809
H          6.79642        15.49548        -2.13291
O         28.26881        16.08432         2.26293
H         29.12809        15.68268         2.51451
O         17.37730        14.54037        -2.11995
H         18.01792        13.88532        -2.47505
O         26.23882         6.52863         1.71432
H         26.92160         6.56054         2.42278
O         14.99683         5.35686         0.78918
H         14.76398         6.17387         1.27806
O         29.09134         6.45286         2.67855
H         28.73985         5.66294         3.15751
O         22.08830         8.52138        -2.55706
H         22.99070         8.62380        -2.93223
O         15.84087         7.90730        -2.85877
H         15.22786         7.18947        -3.13062
O          5.13963        16.88166         2.20728
H          5.97969        17.33361         2.43575
O         11.15774         2.18669        -2.62949
H         10.36965         2.70956        -2.92207
O          6.70883         7.84353         2.03751
H          6.09656         7.26584         2.55318
O          8.37537        16.42624        -2.05068
H          9.22362        16.11319        -2.43341
O         16.11320        11.91372         1.29981
H         15.20717        11.73483         1.63448
O         29.82532        13.11098        -1.96024
H         30.65372        13.61954        -2.09363
O          4.02277        12.40797         1.99928
H          3.36307        11.93714         2.56219
O         10.93003         3.23193         0.92037
H         11.19971         4.08317         1.34446
O          4.28437        12.68236        -1.64700
H          4.79111        13.37238        -2.14169
O          2.25223        10.28520         2.39497
H          2.86633         9.67727         2.86121
O         14.74623         4.48559        -2.74324
H         14.65253         3.62183        -3.19745
O         26.60571         5.63441        -1.81575
H         26.30566         6.16451        -2.59813
O         12.32909        12.68584         1.59585
H         11.54087        13.15289         1.94857
O         27.67375         4.08870         2.94954
H         26.77242         3.72345         3.08798
O         27.91856         8.56624        -2.23863
H         27.14956         8.44357        -2.86122
O          6.84907         6.19187        -2.11462
H          6.27175         5.49404        -2.50051
O         21.15329         7.81731         0.91335
H         20.34737         7.42307         1.30626
O         14.78135        17.31604        -2.00828
H         15.67856        17.63230        -2.24828
O         18.54058        10.93700        -2.61748
H         18.53780        10.04574        -3.02980
O          5.69485        10.37153        -1.83112
H          5.00956        11.04498        -2.07528
H          0.80202         1.43223         2.29009
H          0.71150         3.90683         2.22497
H          2.80265         0.20946         1.47126
H          0.40153         5.65857         0.90039
H          0.26116         8.11703         0.74410
H          0.28012        10.05291         0.03552
H          0.26470        12.46799        -0.31232
H          0.16139        14.48569         0.23180
H          0.24419        16.93959         0.30950
H          1.48132        19.04867         0.57214
H          5.09878         0.21926         0.74828
H          3.59681        20.32288         0.57484
H          7.46317         0.20225        -0.14459
H          6.07866        20.33301         0.33591
H          9.80473         0.23839        -0.64411
H          8.55753        20.30484         0.25942
H         12.33057         0.23371        -0.63532
H         11.00941        20.30055         0.24881
H         14.78814         0.34353        -0.28869
H         13.47521        20.30954         0.37290
H         17.11771         0.45461         0.28427
H         15.96019        20.30570         0.43703
H         19.62258         0.48632         0.59500
H         18.39918        20.31900         0.36299
H         22.10349         0.55038         0.89506
H         20.87735        20.32294         0.46005
H         24.51141         0.54271         0.99833
H         23.35699        20.34571         0.56198
H         26.98020         0.51731         1.13688
H         25.82182        20.34233         0.75352
H         29.35660         0.56048         1.70168
H         28.28641        20.33402         0.95173
H         31.47797         1.84569         1.82316
H         32.72287         3.87295         1.54945
H         32.88126         6.25932         1.00863
H         32.98711         8.11192         0.59664
H         33.04295        10.49716         0.17214
H         33.01615        12.38709         0.37274
H         32.99274        14.80745         0.47744
H         32.97274        16.75172         0.24155
H         30.72672        20.39098         0.79089
H         32.90161        19.20733         0.49182
