         349
 CSIRO Nanostructure Databank - Neutral Graphene Oxide Data Set
C          1.27633         3.40547         1.21634
C          0.03833         4.04580         1.17932
C          1.12691         6.17426         0.67326
C         -0.04120         5.41507         0.93340
C          1.08946         7.60227         0.49651
C         -0.02649         8.34978         0.88185
C          1.18042        10.45610         0.49884
C         -0.00275         9.73817         0.84934
C          1.19836        11.91872         0.81199
C         -0.04174        12.71075         0.67928
C          1.14760        14.89071         0.80550
C         -0.06411        14.05936         0.67146
C          1.10114        16.34980         0.50394
C         -0.05076        17.08390         0.44148
C          1.06678        19.26095         0.14715
C         -0.06854        18.51735         0.26816
C          1.06958        20.79013         0.06930
C         -0.15020        21.47648        -0.49631
C          1.18847        23.51113        -0.91294
C         -0.05727        22.78542        -0.87429
C          1.15720        25.03297        -0.82179
C          0.06949        25.74912        -1.57857
C          1.41952        27.79482        -1.67275
C          0.19270        27.06608        -1.89301
C          1.52291        29.19721        -1.82571
C          3.73423         3.46439         1.04511
C          2.46781         4.13133         0.98666
C          3.59850         6.27291         0.38908
C          2.39077         5.52136         0.67506
C          3.57178         7.58541        -0.00920
C          2.23817         8.29486        -0.19991
C          3.55477        10.55417        -0.37613
C          2.32138         9.78945         0.08926
C          3.67373        11.98020         0.13785
C          2.50515        12.66686         0.71688
C          3.67243        14.88467         0.19011
C          2.49067        14.17061         0.73832
C          3.61123        16.27174         0.04817
C          2.41108        17.03327         0.45428
C          3.52208        19.19786        -0.37914
C          2.37882        18.56827         0.27362
C          3.31064        20.44556        -0.96533
C          2.27975        21.34178        -0.65642
C          3.68035        23.45492        -0.73231
C          2.39865        22.77156        -0.84859
C          3.65867        24.92028        -0.55820
C          2.49558        25.68304        -1.06192
C          3.89763        27.74246        -1.31746
C          2.58747        27.03513        -1.32027
C          3.92386        29.22159        -1.26977
C          2.70462        29.89395        -1.58726
C          6.17487         3.47662         0.86121
C          4.93555         4.15790         0.94608
C          6.15404         6.37336         0.55810
C          4.88699         5.63022         0.76524
C          6.16061         7.51384        -0.47125
C          4.78734         8.30615        -0.58188
C          6.04951        10.45171        -0.18827
C          4.85444         9.77422        -0.20408
C          6.04070        11.91170        -0.48543
C          4.81247        12.69399        -0.17547
C          6.06054        14.85451        -0.45165
C          4.85147        14.14268        -0.14656
C          6.07501        16.24239        -0.42309
C          4.80561        16.97494        -0.43293
C          6.10614        19.21085        -0.33983
C          4.81980        18.49646        -0.59953
C          6.04826        20.64881        -0.15572
C          5.12872        21.44855        -0.84311
C          6.11762        23.51675        -0.06584
C          4.93041        22.82853        -0.54114
C          6.18444        24.90455        -0.04274
C          4.94302        25.64419        -0.28870
C          6.29491        27.76568        -0.34991
C          5.10707        27.02670        -0.80089
C          6.28969        29.18360        -0.46426
C          5.09825        29.87201        -0.91116
C          8.60215         3.42913         0.51917
C          7.40643         4.13216         0.67201
C          8.62685         6.18678        -0.12043
C          7.48688         5.64728         0.77370
C          8.62479         7.69638        -0.03915
C          7.40026         8.37355        -0.19515
C          8.56996        10.53495        -0.02064
C          7.34571         9.78384        -0.16279
C          8.59049        11.95654        -0.17230
C          7.35641        12.62969        -0.63491
C          8.49219        14.86153        -0.11934
C          7.35601        14.14258        -0.85100
C          8.61541        16.28923        -0.62839
C          7.30920        17.04088        -0.66126
C          8.61839        19.08251        -0.13216
C          7.32759        18.49562        -0.31665
C          8.82991        20.31316         0.52136
C          6.98975        21.40091         0.61606
C          8.51135        23.38207         0.92816
C          7.21619        22.74945         0.43248
C          8.54725        24.87677         0.63586
C          7.40709        25.59071         0.27014
C          8.58098        27.76527         0.48417
C          7.42299        27.05594         0.14228
C          8.59894        29.19257         0.38451
C          7.44820        29.88295        -0.07311
C         11.08801         3.39262         0.37983
C          9.87102         4.09695         0.40444
C         11.10950         6.23542         0.35644
C          9.89970         5.51861         0.29634
C         11.08436         7.69254         0.37904
C          9.82809         8.40591         0.25273
C         10.97235        10.57123         0.70865
C          9.77414         9.82833         0.29512
C         10.96746        12.09779         0.75817
C          9.76930        12.73845         0.08080
C         10.99457        14.92871         0.38432
C          9.79178        14.11606        -0.06305
C         11.05105        16.35841        -0.13536
C          9.89654        17.00762        -0.46860
C         11.10454        19.21207        -0.49671
C          9.83192        18.48041        -0.82531
C         11.10757        20.56963        -0.21544
C          9.89318        21.18757         0.26068
C         11.08505        23.34337         0.83359
C          9.78644        22.71261         0.27110
C         11.00742        24.86913         0.79604
C          9.81435        25.55494         0.80714
C         11.05005        27.78277         0.89143
C          9.75546        27.04454         1.10969
C         11.02786        29.21861         0.87166
C          9.79297        29.89910         0.70245
C         13.54327         3.37886         0.10047
C         12.32103         4.08712         0.32090
C         13.60289         6.23115         0.69764
C         12.31913         5.51101         0.40706
C         13.55461         7.70463         0.33858
C         12.31865         8.38667         0.40907
C         13.52482        10.63339         0.43435
C         12.30848         9.85135         0.63397
C         13.50297        12.05446         0.35116
C         12.28667        12.74499         0.38397
C         13.53722        14.96428         0.55516
C         12.29753        14.20853         0.01540
C         13.55553        16.38414        -0.00490
C         12.34942        17.02298        -0.24693
C         13.64943        19.21226        -0.60971
C         12.34811        18.44130        -0.67401
C         13.58692        20.66771        -0.34522
C         12.35521        21.33638        -0.15138
C         13.54896        23.43513         0.13920
C         12.33546        22.71904         0.18527
C         13.55232        24.88234         0.50860
C         12.28906        25.60553         0.88328
C         13.47095        27.83418         0.76309
C         12.26576        27.09866         0.83473
C         13.47919        29.25447         0.88126
C         12.24657        29.93342         0.94806
C         15.89650         3.39755        -0.62577
C         14.75164         4.05073        -0.16447
C         15.98720         6.31187        -0.32831
C         14.83764         5.50535         0.16819
C         15.94482         7.79140        -0.26952
C         14.77371         8.42613         0.17599
C         16.07235        10.63095         0.17919
C         14.78288         9.88829         0.39458
C         16.00677        12.07812        -0.27626
C         14.75530        12.81185         0.15608
C         16.03835        14.92625         0.16414
C         14.79339        14.18448         0.23439
C         16.05548        16.31682         0.07063
C         14.83142        17.07665        -0.10129
C         16.10980        19.22908        -0.23065
C         14.88338        18.46905        -0.29169
C         16.06362        20.63415        -0.27830
C         14.81257        21.36824        -0.24326
C         16.04432        23.55541        -0.27717
C         14.77799        22.78246        -0.12148
C         16.02904        25.04535        -0.16614
C         14.70665        25.71832         0.03898
C         15.99708        27.88106         0.46044
C         14.71422        27.17843         0.33667
C         15.96192        29.27891         0.73096
C         14.73470        29.94363         0.88685
C         18.31378         3.48744        -1.47504
C         17.00813         4.12674        -1.24430
C         18.28695         6.36892        -1.35470
C         17.01972         5.65850        -1.18942
C         18.23878         7.87550        -1.42084
C         17.14098         8.51565        -0.59079
C         18.51501        10.56994        -0.37243
C         17.21872         9.86972        -0.34967
C         18.55582        12.04244        -0.01020
C         17.28240        12.81083         0.05961
C         18.56050        14.86429         0.53900
C         17.28288        14.16701         0.22612
C         18.48008        16.37332         0.77887
C         17.40115        16.99365        -0.15573
C         18.53056        19.20298         0.16628
C         17.36267        18.51371        -0.03368
C         18.59507        20.65478        -0.05951
C         17.31884        21.40256        -0.28971
C         18.51793        23.56772         0.05810
C         17.33652        22.86880        -0.08362
C         18.57062        25.08264        -0.17331
C         17.26513        25.79282         0.13400
C         18.51726        27.95834         0.19385
C         17.22773        27.16748         0.32947
C         18.42179        29.35772         0.76289
C         17.21031        29.98375         0.90392
C         19.42637         4.21807        -1.73748
C         20.65377         6.39968        -1.91657
C         19.43616         5.67315        -1.71311
C         20.72125         7.77269        -1.71360
C         19.59774         8.53982        -1.33786
C         20.82903        10.71304        -1.18955
C         19.68678         9.92851        -1.00795
C         20.87213        12.09431        -0.86259
C         19.79772        12.77839        -0.32799
C         21.06125        15.00158        -0.03502
C         19.85531        14.17168         0.16469
C         21.06084        16.31362         0.24658
C         19.85513        17.07066         0.65295
C         21.02452        19.32230        -0.09220
C         19.84662        18.55401         0.41574
C         21.02183        20.66343        -0.03817
C         19.79921        21.36888         0.51513
C         20.90113        23.59224         0.61186
C         19.76821        22.87297         0.30524
C         20.88773        25.00936         0.74240
C         19.76848        25.76206         0.46322
C         20.83077        27.90276         1.12498
C         19.73835        27.19355         0.66964
C         20.79956        29.32155         1.29217
C         19.63979        30.02960         1.12473
O         19.34870        14.20890         1.56925
O          4.32551        20.90045        -1.83819
O          7.98473        16.64445        -1.90670
O         13.21776        25.08849         1.93076
O         20.07946        18.00127         1.76096
O          4.70184        17.64134        -1.78965
O         11.60170        10.08158         1.94193
O         18.23396        21.04075        -1.41265
O         15.67478        10.32096         1.53091
O         18.77508        11.02299         1.02323
O          2.03051        12.13059         2.00297
O         13.07222        18.77955        -1.90071
O          5.47677         6.51014         1.84173
O          6.31358         6.87365        -1.72816
O         16.00246         5.74419         1.04825
O          4.86680        27.14128        -2.25373
O          6.67443        12.03438        -1.80886
O          1.97877        14.67777         2.00085
O         16.06643        24.39637        -1.50953
O          2.66079        17.95625         1.56943
O          7.85781        20.69935         1.46085
O         17.67915        16.64512        -1.49033
O         14.42688        26.62002        -1.06308
O          3.97729        25.44061         0.82362
O         16.53024         4.97629        -2.37918
O         10.85260        15.07082         1.83595
H         10.84295        14.14664         2.21851
O         17.99112        16.55387         2.11549
H         18.62930        16.12805         2.72694
O          4.50030         8.38600        -2.02378
H          5.20019         7.76403        -2.42535
O         10.76788        12.43297         2.18455
H         11.26426        11.73975         2.69006
O          8.57769        23.24652         2.35540
H          8.52264        22.28822         2.56809
O          1.89328         8.15395        -1.62788
H          2.75101         8.21262        -2.12613
O         12.34938        14.26485        -1.43652
H         13.18607        13.84647        -1.73125
O          8.08641        14.96988         1.28056
H          8.89929        15.16952         1.80794
O         18.70313        28.11590        -1.24957
H         18.78270        27.20304        -1.62765
O         13.49473        15.06802         1.99373
H         12.60587        15.42044         2.24408
O          7.92723         5.93423         2.12236
H          7.11083         6.03941         2.66737
O         17.78728         8.14243        -2.81156
H         18.34651         7.60553        -3.41346
O          7.56732        14.32099        -2.26014
H          7.04136        13.62905        -2.72301
O          9.70728        23.07294        -1.12975
H         10.39180        22.57606        -1.62684
O          0.88251        25.28006         0.61887
H          1.74946        25.29563         1.08466
O         11.19869        22.97604         2.22878
H         11.88596        23.55998         2.62434
O         15.94897        11.97837        -1.74384
H         16.04470        12.88288        -2.11259
O          8.53926         5.73149        -1.48061
H          7.69081         6.13381        -1.86657
O         13.71098         6.24270         2.15472
H         14.67267         6.32351         2.36036
O         19.73772        21.14839         1.95142
H         20.63943        21.23739         2.32262
O          9.51655        27.10687         2.56240
H          9.43005        28.05305         2.80614
O          9.65778        18.64701        -2.25815
H          8.99385        17.96964        -2.54875
O          3.36032        10.75500        -1.81753
H          3.80595         9.99770        -2.27818
O          1.15622        21.22071         1.47160
H          1.09790        22.20022         1.48301
O         18.73511        25.25651        -1.62667
H         17.91679        24.87930        -2.03818
H          1.33647         2.32988         1.43492
H         -0.88068         3.47020         1.35599
H         -1.02756         5.89728         0.90910
H         -0.91674         7.84781         1.28569
H         -0.88538        10.29116         1.19733
H         -0.98141        12.17040         0.49253
H         -1.02161        14.57066         0.49397
H         -1.02479        16.58198         0.53014
H         -1.05411        19.00354         0.23050
H         -1.13605        20.99127        -0.44576
H         -0.98042        23.32413        -1.13617
H         -0.88125        25.23309        -1.77516
H         -0.65226        27.60159        -2.35242
H          0.61710        29.76246        -2.09064
H          3.74800         2.37096         1.16902
H          2.70434        30.99244        -1.64240
H          6.16121         2.37511         0.88826
H          5.11495        30.97289        -0.90847
H          8.58782         2.32774         0.53373
H          7.47660        30.97979        -0.14860
H         11.08638         2.29292         0.38378
H          9.79204        30.99795         0.65824
H         13.49740         2.28929        -0.04591
H         12.22878        31.03225         0.97848
H         15.91860         2.29701        -0.64913
H         14.73406        31.03302         1.03897
H         18.37781         2.39190        -1.39522
H         17.17362        31.03021         1.24391
H         20.38430         3.70719        -1.91534
H         21.56524         5.84463        -2.17946
H         21.70354         8.26117        -1.78850
H         21.73251        10.26752        -1.62880
H         21.81503        12.62707        -1.05198
H         21.99086        14.51278        -0.35997
H         22.00037        16.87903         0.16213
H         21.90645        18.78537        -0.47209
H         21.88191        21.24590        -0.40196
H         21.83138        23.06004         0.86045
H         21.79717        25.48730         1.13160
H         21.76561        27.38465         1.38142
H         21.71748        29.83298         1.61402
H         19.60489        31.10649         1.34635
