         720
 CSIRO Nanostructure Databank - Neutral Graphene Oxide Data Set
C         24.88215        28.99299         5.71160
C         24.50916        30.08301         4.93012
C         23.71941        32.42113         3.31598
C         23.70968        33.73015         2.95341
C         23.55764        36.54489         2.18866
C         23.48219        37.87256         1.83374
C         23.25772        40.65388         0.90103
C         23.15046        41.95614         0.44544
C         22.79005        44.59721        -1.14997
C         22.75166        45.89935        -1.54451
C         27.23757        26.08254         5.56067
C         26.27608        26.94550         6.02106
C         26.61508        28.41855         4.09091
C         25.92046        28.12666         5.29071
C         26.27459        29.58095         3.32564
C         25.18726        30.39369         3.73921
C         25.85100        32.10333         2.02264
C         24.69919        31.44306         2.74976
C         25.77808        33.48601         1.60955
C         24.68151        34.30859         2.07309
C         25.61809        36.29810         0.92022
C         24.61567        35.70649         1.72336
C         25.59755        37.68660         0.63517
C         24.49302        38.48658         1.04783
C         25.48383        40.45769        -0.09801
C         24.40842        39.86996         0.63636
C         25.37169        41.81630        -0.52240
C         24.20090        42.55602        -0.28446
C         25.31086        44.70187        -1.14266
C         24.07386        43.98515        -0.72534
C         25.21058        45.92580        -2.05538
C         23.95221        46.69076        -1.73761
C         25.18906        48.80115        -1.89535
C         23.97679        48.06725        -1.74964
C         29.31792        24.21617         4.54730
C         28.94681        25.42306         3.83336
C         27.93779        26.31967         4.33073
C         28.20551        27.74607         2.34568
C         27.61733        27.51293         3.61234
C         28.05167        29.03168         1.54813
C         27.04789        29.96416         2.18482
C         28.00556        31.77599         0.77613
C         26.91747        31.26786         1.64859
C         27.94716        33.24334         0.38168
C         26.80087        34.05761         0.84019
C         27.94110        36.15640        -0.01467
C         26.63688        35.42851         0.23178
C         27.92974        37.51910        -0.25132
C         26.70833        38.31312        -0.04856
C         27.81911        40.26281        -1.15067
C         26.65607        39.66268        -0.38193
C         27.81253        41.77413        -1.17545
C         26.46443        42.42315        -1.38299
C         27.68705        44.55611        -2.06467
C         26.62216        43.94028        -1.12310
C         27.69659        46.06885        -1.97369
C         26.49007        46.73914        -1.97796
C         27.70076        48.91301        -2.01794
C         26.43865        48.18219        -1.97898
C         27.73560        50.36386        -1.97725
C         30.93584        23.56726         2.77206
C         30.19971        23.32910         4.03380
C         30.70349        24.86489         2.03650
C         29.57477        25.69468         2.59663
C         30.65418        27.64336         0.65172
C         29.04184        26.75877         1.85083
C         30.62419        28.99673         0.83966
C         29.44551        29.75794         1.46579
C         30.49576        31.84227         0.58473
C         29.33494        31.14217         0.86880
C         30.43686        33.27421         0.29205
C         29.23803        33.93234         0.17009
C         30.47421        36.13038        -0.37958
C         29.16799        35.36700        -0.22196
C         30.39414        37.58964        -0.34219
C         29.17672        38.23849        -0.44806
C         30.29059        40.41164        -0.74153
C         29.14162        39.67331        -0.70917
C         30.27401        41.80975        -1.21524
C         28.96463        42.51138        -1.27595
C         30.14242        44.67260        -1.62694
C         28.98462        43.91666        -1.64553
C         30.15875        46.06322        -1.97191
C         28.94852        46.78527        -2.02531
C         30.22411        48.99822        -2.10585
C         28.91276        48.22581        -2.04932
C         30.15417        50.41531        -1.55837
C         28.88380        51.07310        -1.75851
C         33.54439        20.85920         2.94035
C         32.36147        21.55019         3.09490
C         33.31514        23.51198         1.98666
C         32.23767        22.87257         2.61671
C         33.15939        24.87681         1.48691
C         31.92299        25.48504         1.37438
C         33.11749        27.56535         0.39080
C         31.86806        26.79928         0.63820
C         33.08701        29.04907         0.34858
C         31.85312        29.75689         0.64386
C         33.00540        31.90468         0.31594
C         31.79078        31.15550         0.58341
C         32.97169        33.26009         0.18086
C         31.72713        34.05152         0.47041
C         32.93697        36.14716        -0.15418
C         31.76693        35.45311        -0.10665
C         32.95971        37.62713        -0.09652
C         31.64008        38.34515        -0.12581
C         32.88668        40.55028        -0.63445
C         31.59672        39.82832        -0.35577
C         32.92886        42.05180        -0.93771
C         31.54273        42.62053        -1.21425
C         33.01059        44.80524        -2.71371
C         31.32425        44.08231        -0.95972
C         32.78381        46.28718        -2.60914
C         31.43222        46.82420        -2.19893
C         32.62494        48.91015        -1.23363
C         31.33668        48.15273        -1.45660
C         32.43443        50.21208        -0.48150
C         31.28894        51.04634        -1.07036
C         32.49868        53.16163        -0.56472
C         31.36926        52.48440        -0.89972
C         35.95544        19.33750         2.40092
C         35.90771        20.75482         2.20164
C         34.66444        21.47280         2.33055
C         35.71684        23.41307         1.24150
C         34.56991        22.81363         1.84945
C         35.54114        24.72453         0.50915
C         34.49814        25.59218         1.27809
C         35.49919        27.52119        -0.16415
C         34.40628        26.95578         0.69017
C         35.54080        29.02995        -0.04771
C         34.29122        29.71598         0.16813
C         35.49200        31.84762        -0.33343
C         34.34328        31.19865         0.40492
C         35.39554        33.28545        -0.65144
C         34.16229        34.01926        -0.28606
C         35.46422        36.20844        -0.48147
C         34.26240        35.47525         0.10686
C         35.41442        37.63488        -0.64592
C         34.21420        38.34113        -0.41737
C         35.28410        40.36331        -1.60740
C         34.08386        39.70603        -0.96710
C         35.23076        41.81604        -2.03192
C         33.93501        42.56312        -1.98235
C         35.18387        44.67066        -1.52144
C         33.95220        44.06868        -2.02134
C         35.22965        45.93839        -0.92015
C         33.95358        47.27318        -2.51333
C         35.08630        48.94795        -0.89409
C         33.85458        48.37530        -1.49183
C         35.02409        50.26636        -0.51559
C         33.74491        50.97843        -0.32888
C         35.10150        53.15198        -0.49247
C         33.78185        52.47988        -0.26856
C         35.14903        54.49559        -0.88993
C         38.32795        19.24248         1.87527
C         37.10136        18.60511         2.17436
C         38.35478        20.71439         1.88932
C         37.07514        21.45618         1.84293
C         38.16896        23.47916         0.84458
C         36.98219        22.79263         1.32915
C         38.10594        24.78564         0.36970
C         36.84348        25.48996         0.31161
C         38.00553        27.57225        -0.35431
C         36.81956        26.84138         0.03198
C         37.98810        29.02321        -0.49542
C         36.73402        29.72751        -0.23758
C         37.96297        31.91813        -0.58702
C         36.68432        31.17381        -0.42220
C         37.94054        33.33120        -1.05557
C         36.63755        34.05740        -0.96276
C         37.87595        36.20813        -1.03342
C         36.63821        35.52283        -0.80901
C         37.85635        37.61947        -1.06901
C         36.62937        38.33058        -1.02803
C         37.75960        40.48261        -1.55490
C         36.60072        39.73013        -1.37162
C         37.72313        41.90731        -1.82107
C         36.49225        42.58582        -1.99964
C         37.61899        44.75688        -1.73703
C         36.41548        44.00131        -1.80155
C         37.63734        46.12019        -1.28676
C         36.40808        46.74538        -0.95097
C         37.44058        48.81877        -0.12979
C         36.32290        48.18287        -0.64826
C         37.41481        50.22155         0.35079
C         36.18485        50.99312         0.04448
C         37.59191        52.98837        -0.61874
C         36.31164        52.43990        -0.29693
C         37.57162        54.32366        -1.10066
C         36.37494        55.06984        -1.16848
C         40.80501        16.40797         1.62348
C         39.64149        17.13812         1.90466
C         40.66267        19.22281         1.05162
C         39.53896        18.52851         1.65464
C         40.68340        20.58674         0.85713
C         39.63528        21.43382         1.46798
C         40.69149        23.50533         0.40686
C         39.53741        22.95681         1.24618
C         40.52739        24.83955        -0.19144
C         39.30395        25.48092        -0.11431
C         40.26092        27.49158        -1.30387
C         39.18152        26.85584        -0.54836
C         40.28688        29.01385        -1.43485
C         39.16088        29.71599        -0.81228
C         40.44490        31.89440        -1.26405
C         39.26484        31.18070        -0.72428
C         40.43565        33.33739        -1.32870
C         39.20662        34.08958        -1.10340
C         40.33911        36.23489        -1.45862
C         39.13678        35.48986        -1.19620
C         40.38564        37.62755        -1.40936
C         39.13001        38.36403        -1.11207
C         40.32471        40.56126        -1.84111
C         39.07724        39.85473        -1.31693
C         40.28537        42.05881        -1.39881
C         38.94442        42.65806        -1.89185
C         40.64221        45.13485        -1.57440
C         38.79050        44.02629        -2.08799
C         40.24451        46.20361        -0.79837
C         38.85468        46.71225        -0.65120
C         39.86949        48.79478         0.56245
C         38.68731        48.05949         0.05472
C         39.85475        50.12258         0.92517
C         38.67672        51.05842         0.65633
C         40.16713        53.09219        -0.18515
C         38.89182        52.12308        -0.48089
C         40.63148        53.72466        -1.47903
C         39.78161        54.62825        -2.13661
C         41.37170        54.96613        -3.91670
C         40.14003        55.24675        -3.34918
C         43.07448        16.24895         0.64591
C         41.89119        16.98790         0.97503
C         43.07672        19.12478         0.39785
C         41.75585        18.38287         0.42156
C         43.02111        20.49238        -0.11703
C         41.66829        21.16562        -0.14990
C         42.89700        23.26128        -0.92643
C         41.83483        22.66646        -0.06183
C         42.81116        24.58262        -1.32539
C         41.77858        25.50781        -0.71111
C         42.69958        27.47490        -2.12522
C         41.51342        26.72954        -1.56987
C         42.69793        28.96187        -2.07462
C         41.58723        29.69229        -1.70360
C         42.79229        31.85057        -1.96473
C         41.61950        31.16190        -1.64031
C         42.78503        33.31858        -2.26090
C         41.56961        34.03446        -1.75249
C         42.85199        36.20828        -1.82105
C         41.52205        35.50569        -2.03438
C         42.83374        37.62737        -1.78723
C         41.61471        38.33189        -1.64514
C         42.85691        40.60796        -1.77953
C         41.61452        39.82897        -1.37104
C         42.83585        42.01405        -1.30171
C         41.63143        42.81201        -1.78676
C         42.70320        44.67127        -0.40235
C         41.70873        44.23815        -1.26355
C         42.63558        46.04305         0.11754
C         41.31132        46.79955         0.00157
C         42.19132        48.50167         1.67069
C         41.01299        47.92993         0.93067
C         42.19514        49.96803         1.82360
C         41.01299        50.65695         1.59404
C         42.61511        52.23830         0.06706
C         41.33427        52.43145         0.52017
C         42.90101        52.62659        -1.34395
C         41.90358        53.47517        -2.04422
C         43.62399        53.99118        -3.78210
C         42.27651        54.10853        -3.25822
C         44.21413        16.85224         0.19266
C         45.48324        19.00386        -0.45347
C         44.35407        18.31983         0.21673
C         45.37709        20.34153        -0.80886
C         44.14830        21.10806        -0.64579
C         45.29634        23.17721        -1.43059
C         44.09257        22.48323        -1.10525
C         45.27247        24.56241        -1.65588
C         44.00104        25.23173        -1.92075
C         45.28345        27.49326        -2.14504
C         44.02247        26.74686        -2.21112
C         45.27723        28.91664        -2.27649
C         43.98535        29.63514        -2.40984
C         45.32244        31.84988        -2.25210
C         44.02298        31.15222        -2.37363
C         45.34203        33.30240        -2.06140
C         44.08512        34.04402        -1.93000
C         45.35730        36.17529        -2.23983
C         44.05935        35.44719        -1.87287
C         45.36814        37.63216        -1.83500
C         44.11216        38.37155        -2.19967
C         45.26952        40.42355        -1.04673
C         44.14965        39.85946        -1.82308
C         45.17027        41.75581        -0.50067
C         43.94887        42.55482        -0.71184
C         44.91509        44.42390         0.63354
C         43.88079        43.89120        -0.13068
C         44.75238        45.67752         1.31774
C         43.60965        46.43712         1.14172
C         44.56791        48.38626         2.24289
C         43.49191        47.78101         1.68119
C         44.49759        49.83753         2.68096
C         43.47969        50.62763         1.83276
C         45.04114        52.09127         0.53896
C         43.70137        51.65916         0.89250
C         45.45844        52.24235        -0.92543
C         44.31504        52.61668        -1.86397
C         44.60901        53.36524        -3.10303
C         47.80306        18.83906        -1.27074
C         46.72559        18.29200        -0.64796
C         47.70949        20.15336        -1.91921
C         46.46893        20.96368        -1.58698
C         47.73759        23.10189        -1.74974
C         46.54250        22.44983        -1.58424
C         47.81995        24.56832        -1.57308
C         46.48737        25.35864        -1.58793
C         47.74568        27.43016        -2.15350
C         46.51233        26.78162        -1.98986
C         47.75306        28.86707        -2.65833
C         46.47898        29.64297        -2.36212
C         47.79677        31.77010        -2.32484
C         46.50409        31.08744        -2.33690
C         47.79276        33.26592        -2.62600
C         46.56335        33.97628        -2.08269
C         47.83432        36.28911        -2.16359
C         46.60553        35.44999        -1.72215
C         47.78018        37.60798        -1.39235
C         46.53823        38.28721        -1.41010
C         47.56842        40.23110        -0.23073
C         46.47305        39.66982        -0.88549
C         47.40140        41.46035         0.63111
C         46.22774        42.30733         0.21812
C         47.28389        44.20577         1.58112
C         46.28209        43.78883         0.52052
C         47.12649        45.48504         2.19774
C         45.72591        46.05066         2.41151
C         47.07167        48.22257         2.44823
C         45.72254        47.58185         2.80130
C         47.07974        49.73133         2.57429
C         45.89235        50.40687         2.70800
C         47.45818        52.29024         1.07556
C         46.10621        52.07998         1.43878
C         47.67276        53.04242        -0.13984
C         46.68007        53.12018        -1.05962
C         50.28234        20.21520        -2.27071
C         48.95292        20.91540        -2.42449
C         50.29257        23.05815        -1.91682
C         49.00275        22.32061        -1.83431
C         50.23811        24.51971        -2.21982
C         49.00529        25.30567        -2.00089
C         50.26359        27.41797        -2.52592
C         48.97234        26.68835        -2.17174
C         50.19118        28.89969        -2.19234
C         49.02133        29.60437        -2.28691
C         50.27151        31.79086        -2.31212
C         48.97588        31.06306        -2.24708
C         50.31013        33.20936        -1.90513
C         49.11187        34.00365        -2.28492
C         50.35547        36.09848        -1.39927
C         49.14130        35.49457        -2.06305
C         50.29133        37.51890        -0.89568
C         49.02758        38.32224        -1.05623
C         49.95237        40.09436         0.60404
C         48.97728        39.77065        -0.53507
C         49.79622        41.27016         1.29186
C         48.72006        42.26300         0.83401
C         49.46868        43.91455         2.63292
C         48.47935        43.46155         1.75112
C         49.38427        45.27701         3.17195
C         48.21334        46.07827         2.83039
C         49.53112        48.21777         3.05426
C         48.18800        47.53513         3.25609
C         49.57125        49.60906         2.71295
C         48.37869        50.37501         2.41262
C         49.82881        52.24400         1.70935
C         48.52837        51.66633         1.81401
C         51.45842        20.88359        -2.28322
C         52.76306        23.01798        -2.18285
C         51.56566        22.33327        -2.20905
C         52.78882        24.49358        -1.81637
C         51.53420        25.24507        -2.21365
C         52.79020        27.38461        -1.94936
C         51.45502        26.70440        -1.81673
C         52.75889        28.83882        -1.75971
C         51.47748        29.59033        -1.93156
C         52.79857        31.75891        -1.87143
C         51.56365        31.04348        -2.25916
C         52.74228        33.06042        -1.35503
C         51.45208        33.76505        -1.39111
C         52.48236        35.62187        -0.02629
C         51.51037        35.21476        -1.07804
C         52.37619        36.99095         0.58979
C         51.48807        38.07104        -0.09548
C         52.19460        39.59677         1.84291
C         51.07837        39.15677         0.91084
C         52.05004        40.92583         2.54210
C         50.72530        41.68453         2.37097
C         51.93900        43.77622         3.39801
C         50.65017        43.09055         2.91903
C         51.98258        45.24389         3.89100
C         50.65730        46.02905         3.65046
C         51.95200        48.19478         3.38596
C         50.70614        47.50519         3.36013
C         52.01413        49.56478         3.09981
C         50.84333        50.25769         2.66481
C         50.93709        51.59569         2.18045
C         55.23275        23.04431        -2.36258
C         54.05926        22.36934        -2.27572
C         55.28528        24.51338        -2.55331
C         53.98877        25.24815        -2.38038
C         55.25941        27.36537        -1.94525
C         54.00181        26.70757        -2.08227
C         55.24451        28.77977        -1.43125
C         54.05618        29.55274        -1.96919
C         55.35906        31.79309        -1.74570
C         54.07163        31.05284        -2.01507
C         55.29496        33.26104        -1.28876
C         53.91484        33.69838        -0.87482
C         54.99287        35.56111         0.53018
C         53.79265        34.85906         0.01252
C         54.88270        36.79444         1.14059
C         53.58123        37.49843         1.36704
C         54.64527        39.56490         2.30866
C         53.54552        38.93956         1.79684
C         54.60971        41.10762         2.39378
C         53.26699        41.72777         2.78316
C         54.38774        43.93589         2.90857
C         53.21361        43.10100         3.03255
C         54.33730        45.37008         3.08115
C         53.19722        46.03125         3.48339
C         54.47990        48.24018         3.72580
C         53.16813        47.48337         3.94723
C         54.39889        49.71104         3.67769
C         53.24411        50.31371         3.33716
C         57.79309        24.62207        -2.45401
C         56.54798        25.27647        -2.38381
C         57.73538        27.37133        -1.83598
C         56.50222        26.67366        -2.08084
C         57.74180        28.78651        -1.54526
C         56.54361        29.50413        -1.56486
C         57.73164        31.57865        -0.81015
C         56.57811        30.97009        -1.48604
C         57.61466        32.88673        -0.25727
C         56.38106        33.64311        -0.28347
C         57.46915        35.48604         0.93684
C         56.27655        34.85751         0.40848
C         57.42811        36.84154         1.39815
C         56.08711        37.42187         1.75703
C         57.08525        39.42809         3.07269
C         55.91062        38.75042         2.46039
C         56.79801        41.38388         3.82687
C         55.69589        41.87473         3.13318
C         56.87610        44.02646         3.06489
C         55.66424        43.28875         2.94702
C         56.87952        45.41826         2.59868
C         55.56652        46.13559         2.73965
C         56.89291        48.29440         2.67162
C         55.68430        47.56577         3.14404
C         58.98337        25.30252        -2.24147
C         60.19065        27.39541        -1.68633
C         58.97483        26.68462        -1.91906
C         60.18396        28.73495        -1.33851
C         58.97467        29.46162        -1.24225
C         60.03839        31.40446        -0.06883
C         58.92343        30.82477        -0.72990
C         59.95603        32.67673         0.45343
C         58.76492        33.44309         0.36402
C         59.92927        35.49805         1.05526
C         58.71818        34.80827         0.82096
C         59.89824        36.85328         1.28753
C         58.66393        37.51402         1.45115
C         59.42549        40.17364         3.50091
C         58.39969        39.48674         2.73553
C         59.23639        41.34886         4.17315
C         58.00689        42.10501         4.02002
C         59.18043        44.34877         3.88631
C         58.03381        43.47828         3.64011
C         59.23305        45.62215         3.44601
C         58.21228        46.14861         2.46734
C         58.05416        47.65377         2.47094
O         51.11166        38.70610         2.27662
O         52.00276        29.31005        -0.56752
O         54.44306        24.92634        -3.71449
O         24.79667        44.92186         0.20366
O         41.04036        52.05186         1.84264
O         42.45934        47.12092        -0.87979
O         51.55352        36.05337        -2.27529
O         43.96533        18.90349         1.52313
O         30.18799        23.60021         1.50266
O         50.04879        38.28027        -2.14186
O         33.76459        51.69375         0.97420
O         34.30976        41.92136        -3.20456
O         31.84200        46.81354        -3.60791
O         55.76955        37.48390         3.21352
O         51.01596        31.46190        -3.54679
O         49.77460        22.59911        -0.61250
O         54.15619        30.21093        -3.23978
O         49.69829        45.56149         4.61787
O         29.47689        26.90459         0.52150
O         46.61601        20.28406        -2.89478
O         50.95706        24.85366        -3.46953
O         39.37516        21.15500         2.87116
O         34.38702        33.67623        -1.68779
O         39.21622        39.31783         0.04814
O         41.76281        26.73801        -2.98880
O         32.35920        40.46512         0.72928
O         38.60866        55.09187        -1.58354
O         31.01427        42.08369        -2.46133
O         43.89430        30.41154        -3.65849
O         39.79541        28.15494        -2.51678
O         45.28713        45.29726         3.52409
O         43.60217        40.58993        -3.02587
O         32.43394        26.79471        -0.72709
O         58.82555        38.89689         1.53852
O         32.27656        38.03207         1.17147
O         56.05689        45.74087         1.41628
O         39.84153        44.74920        -2.65239
O         29.77455        35.56953        -1.55143
O         56.75080        40.05538         4.29474
O         41.16173        47.72531         2.36821
O         36.42795        50.48921         1.41792
O         31.95172        44.72008        -0.11270
O         56.30453        31.63768        -2.84278
O         43.41299        51.47876        -2.12809
O         52.47196        36.79547         2.01863
O         47.22325        25.07974        -0.34441
O         41.92596        23.31042         1.25000
O         37.15402        33.58290        -2.26607
O         45.89681        51.81152         2.80936
O         34.34829        39.59165        -2.42213
O         52.68927        34.60737         0.98130
O         34.86073        47.24039        -3.32538
O         50.97236        40.80273         3.50715
O         49.48745        34.93580        -3.36053
O         38.81706        31.74312         0.59049
O         55.52386        47.70832         4.61072
O         43.97686        25.75978        -3.29792
O         38.54182        46.80252         0.80366
O         51.07557        43.06316         4.31839
O         27.60815        32.17850        -0.57969
O         52.91313        24.55727        -0.36916
H         52.29449        25.25122        -0.02985
O         39.70869        23.58635         2.54465
H         40.58330        23.30033         2.88955
O         30.58382        49.16956        -3.50293
H         29.82986        49.59541        -3.96139
O         51.15393        26.69749        -0.38507
H         51.33854        27.61250        -0.04907
O         25.04309        45.46363        -3.42235
H         25.91107        45.07976        -3.72004
O         34.70597        31.35016         1.83449
H         35.56927        30.90211         1.96951
O         52.36239        38.71125        -1.05497
H         52.30442        38.20970        -1.89998
O         45.36069        36.02727        -3.67720
H         44.85094        36.78320        -4.05955
O         45.49302        47.65071         4.21982
H         45.27222        46.69855         4.46679
O         46.63278        35.49342        -0.26752
H         45.81772        35.06239         0.06720
O         30.87324        47.74661        -0.14655
H         31.11999        48.43715         0.51703
O         54.97496        28.71908         0.02516
H         55.63806        28.11843         0.42741
O         34.43765        35.46470         1.56457
H         34.38247        36.39434         1.87702
O         58.72487        45.81153         1.14499
H         57.96079        45.87342         0.52926
O         47.09332        40.99439         1.99474
H         46.21694        40.55444         1.97995
O         39.69430        54.11476         0.70365
H         39.45593        53.65656         1.54452
O         42.45760        26.04339         0.48077
H         42.53037        25.28954         1.11601
O         26.06571        42.16136        -2.76526
H         26.28770        41.21148        -2.94290
O         39.11574        51.39307        -1.68881
H         39.34984        52.01686        -2.40885
O         52.10152        45.12116         5.32759
H         51.34145        44.56679         5.62240
O         31.77795        34.29768         1.92651
H         32.67916        34.65884         2.12031
O         47.29563        47.92228         1.04498
H         48.00999        48.50220         0.70689
O         27.61224        39.86563        -2.55819
H         28.45462        40.01134        -3.04104
O         35.06690        25.70689         2.63070
H         34.54365        26.36857         3.12962
O         47.62168        33.34117        -4.06561
H         47.92897        34.23674        -4.34489
O         40.22152        42.14717         0.03209
H         39.52144        41.54633         0.36526
O         48.79545        21.12278        -3.85214
H         47.85170        20.92668        -4.07077
O         35.11844        27.22090        -1.56710
H         35.78319        27.64431        -2.15250
O         34.16654        46.36685        -0.18464
H         33.47507        45.66035        -0.10458
O         27.17990        44.05984         0.20205
H         26.44520        44.35227         0.79569
O         31.98205        49.90467         0.87145
H         32.40158        50.57727         1.46427
O         33.46817        42.66234         0.25682
H         33.00737        42.26633         1.03177
O         41.07652        20.94156        -1.46497
H         41.11272        19.96425        -1.62899
O         47.93168        47.65194         4.66915
H         48.49449        46.98381         5.12648
O         32.11070        44.19322        -3.52234
H         31.60214        44.89789        -3.98990
O         40.27014        40.50602        -3.27244
H         40.89780        41.18910        -3.62181
O         47.70942        36.65127        -3.55105
H         48.54609        37.09075        -3.81472
O         42.72139        33.38171        -3.75307
H         43.39853        32.76361        -4.10963
O         41.39663        18.22174        -1.00477
H         40.61238        17.63337        -1.04666
O         49.37202        40.60142        -1.67786
H         50.02593        40.07161        -2.19925
O         23.95099        30.68037         1.73132
H         24.60234        30.13888         1.23421
O         27.44789        44.25075        -3.46604
H         27.12096        43.31440        -3.52468
O         41.74923        39.92599         0.07510
H         40.89961        39.61197         0.47792
O         49.16580        42.89487        -0.37597
H         49.28135        42.20484        -1.07831
O         46.84552        44.38801        -0.70879
H         46.28143        44.10921        -1.46195
O         27.57364        28.76823         0.21873
H         28.12349        28.04443        -0.16281
O         55.59326        34.07104        -2.46813
H         56.11309        33.49011        -3.07707
O         44.03831        38.28150        -3.66398
H         43.64260        39.13203        -3.98328
O         54.82873        41.45547         0.97394
H         54.93355        42.43054         0.91453
O         38.45509        51.83578         1.84181
H         37.61162        51.50831         2.24734
O         47.82390        28.74649        -4.12902
H         46.92458        28.53370        -4.46038
O         26.08267        35.16671        -1.11261
H         26.64894        34.48853        -1.54203
O         29.84168        29.92370         2.86177
H         30.63709        30.49821         2.88497
O         41.31441        35.63066        -3.49510
H         41.88695        34.94865        -3.93085
O         50.47760        27.37118        -3.94849
H         49.70184        27.80055        -4.37902
O         43.97090        49.86298         4.03304
H         44.41545        49.11278         4.50879
O         41.70484        42.82499        -3.23691
H         41.11161        43.55107        -3.54488
O         34.99816        24.42813        -0.79381
H         34.83310        25.28811        -1.25515
O         45.88010        50.89480        -1.31176
H         45.06269        50.42281        -1.59724
O         52.96300        47.49858         5.37949
H         53.75955        47.09723         5.79023
H         24.34384        28.77785         6.64568
H         23.66955        30.70830         5.26384
H         22.91391        32.03930         3.95875
H         22.91695        34.36932         3.36508
H         22.75666        36.13050         2.81368
H         22.62591        38.46150         2.18802
H         22.41664        40.22397         1.46047
H         22.23897        42.53325         0.65473
H         21.86055        44.01851        -1.04699
H         21.77819        46.38314        -1.72134
H         27.46261        25.18268         6.14884
H         25.74822        26.72706         6.96069
H         25.11935        49.89780        -1.88475
H         23.04455        48.63018        -1.59157
H         28.85619        24.00297         5.52060
H         26.78974        50.91725        -2.05942
H         30.47319        22.44699         4.63088
H         28.81083        52.16397        -1.64026
H         33.61061        19.83313         3.32296
H         31.50352        21.05512         3.56877
H         32.45920        54.25945        -0.51549
H         30.47334        53.07803        -1.13513
H         35.03436        18.79371         2.64516
H         34.23047        55.08435        -1.00743
H         37.05273        17.50970         2.23943
H         36.43657        56.11194        -1.50763
H         40.86576        15.35588         1.93871
H         38.80707        16.61580         2.39089
H         41.67152        55.44601        -4.85861
H         39.44421        55.95175        -3.82138
H         43.04632        15.15354         0.75364
H         43.84698        54.50725        -4.72742
H         45.06327        16.23688        -0.13662
H         45.62999        53.35118        -3.50838
H         48.76333        18.30505        -1.26526
H         46.82654        17.29596        -0.19383
H         48.63505        53.54573        -0.31442
H         46.83712        53.70134        -1.97808
H         50.29999        19.11682        -2.33074
H         49.93154        53.25068         1.28193
H         52.38908        20.29719        -2.29671
H         51.91195        52.09375         2.11268
H         56.17416        22.47593        -2.36142
H         54.09570        21.27073        -2.22982
H         55.30010        50.29702         3.90388
H         53.20951        51.40996         3.30407
H         57.83029        23.55185        -2.69917
H         56.84990        49.39228         2.60938
H         59.94335        24.77303        -2.32158
H         61.14464        26.85490        -1.76771
H         61.14165        29.23707        -1.14364
H         60.97068        30.83606         0.04652
H         60.83165        33.08521         0.97436
H         60.89556        34.98951         0.95486
H         60.82282        37.43911         1.36333
H         60.44415        39.76221         3.43175
H         60.11108        41.84105         4.62493
H         59.98720        43.96232         4.52643
H         60.09556        46.25874         3.69156
H         58.94627        48.23008         2.18054
