         284
 CSIRO Nanostructure Databank - Neutral Graphene Oxide Data Set
C        -11.15315         0.75608         0.06779
C        -10.04260         1.50434         0.76820
C         -8.70881         0.72841         0.72437
C         -7.41555         1.50434         0.67391
C         -6.11814         0.80516         0.47494
C         -4.95549         1.46252         0.22236
C         -3.71112         0.67001        -0.16970
C         -2.37969         1.47157         0.00129
C         -1.21819         0.66823        -0.61039
C          0.06736         1.49132        -0.57239
C          1.31531         0.70376        -0.78073
C          2.62257         1.41927        -0.64085
C          3.77504         0.74189        -0.36178
C          5.07737         1.40128         0.11374
C          6.24776         0.91235        -0.79914
C          7.55459         1.53659        -0.30265
C          8.63257         0.68538         0.29941
C          9.83866         1.43349         0.98328
C         11.13894         0.70738         0.71023
C         -9.90865         2.96795         0.36297
C         -8.75360         3.63661         0.16893
C         -7.45272         2.88114         0.03731
C         -6.20458         3.69914         0.33083
C         -4.89809         2.94213         0.24902
C         -3.75790         3.56409        -0.50068
C         -2.46317         2.83094        -0.67335
C         -1.20186         3.60932        -0.86037
C          0.05496         2.84586        -0.79062
C          1.34756         3.55132        -1.22590
C          2.59051         2.87578        -0.67756
C          3.70243         3.59407        -0.32275
C          4.96950         2.95230         0.20435
C          6.19955         3.75061        -0.32320
C          7.52297         3.01188        -0.10940
C          8.56932         3.64978         0.93175
C          9.80865         2.88536         0.62358
C         -8.75312         5.09554        -0.29689
C         -7.42809         5.84594        -0.14014
C         -6.22124         5.12580         0.00988
C         -4.91673         5.80192        -0.13929
C         -3.80829         5.03101        -0.79642
C         -2.52878         5.71919        -1.17535
C         -1.23945         4.96988        -1.07215
C          0.03284         5.75421        -1.37956
C          1.29700         5.04067        -0.93991
C          2.39834         5.72655        -0.52903
C          3.67094         5.04617        -0.25609
C          4.80702         5.75051         0.07903
C          6.04562         5.01263         0.54152
C          7.32625         5.82038         0.59383
C          8.54035         5.12075         0.64644
C         -7.39853         7.23808        -0.19956
C         -6.17455         8.00612         0.27319
C         -4.87130         7.28532        -0.12074
C         -3.82763         7.96473        -0.96675
C         -2.52959         7.22857        -1.25080
C         -1.24272         7.99726        -1.29003
C         -0.00232         7.23012        -0.99648
C          1.10737         7.90704        -0.61804
C          2.31353         7.17847        -0.10779
C          3.61080         7.94697        -0.39296
C          4.76409         7.21249         0.25737
C          6.03794         7.96988         0.53777
C          7.29157         7.21823         0.52057
C         -6.13567         9.48688        -0.02600
C         -5.04429        10.14643        -0.44718
C         -3.86037         9.45664        -1.03365
C         -2.56805        10.23366        -1.28464
C         -1.28277         9.45774        -0.99098
C         -0.13906        10.09912        -0.67829
C          1.19234         9.40915        -0.83903
C          2.36782        10.07299        -0.16634
C          3.54658         9.41366        -0.02610
C          4.81342        10.09332         0.23058
C          5.99209         9.43938         0.36479
C        -11.13354        -0.58489        -0.07579
C         -9.91559        -1.38266         0.08281
C         -8.71204        -0.69824         0.31343
C         -7.45652        -1.35119        -0.09816
C         -6.16051        -0.64843         0.17923
C         -4.93155        -1.43178         0.50847
C         -3.64979        -0.60385         0.67279
C         -2.36134        -1.40962         0.47000
C         -1.12864        -0.73821        -0.00980
C          0.02780        -1.47451        -0.14110
C          1.26052        -0.79867        -0.65552
C          2.58816        -1.56071        -0.67830
C          3.76799        -0.74301        -0.08614
C          5.02213        -1.43204        -0.67010
C          6.27999        -0.64048        -0.88271
C          7.60619        -1.45180        -0.90088
C          8.76511        -0.71985        -0.20708
C         10.13195        -1.39524        -0.31916
C         11.24309        -0.55386         0.27264
C         -9.93785        -2.78667        -0.14632
C         -8.77047        -3.59363        -0.20349
C         -7.44821        -2.84742        -0.52112
C         -6.28575        -3.62379         0.14559
C         -4.97771        -2.91331         0.40579
C         -3.72946        -3.64808        -0.05248
C         -2.42265        -2.93087         0.32327
C         -1.15804        -3.62942         0.02833
C          0.02894        -2.92321         0.04226
C          1.31039        -3.66627         0.19350
C          2.65764        -2.96438        -0.00087
C          3.77404        -3.74636        -0.70696
C          5.12653        -2.98985        -0.78116
C          6.24078        -3.55319         0.08048
C          7.52818        -2.80727        -0.09949
C          8.80326        -3.59101        -0.05082
C         10.06259        -2.81778         0.31616
C         -8.72688        -4.97518        -0.20857
C         -7.49106        -5.73696        -0.67933
C         -6.28885        -5.10239         0.02384
C         -5.01434        -5.86430         0.10010
C         -3.74972        -5.11080         0.45740
C         -2.51056        -5.85247        -0.02213
C         -1.21569        -5.11409        -0.10933
C         -0.00117        -5.89978         0.27483
C          1.29634        -5.15539         0.30363
C          2.41819        -5.95572        -0.33166
C          3.76440        -5.22116        -0.50987
C          4.92526        -5.81922         0.27856
C          6.26346        -5.05352         0.27724
C          7.58110        -5.79020        -0.00993
C          8.80284        -4.94395        -0.16853
C         -7.46910        -7.24431        -0.51572
C         -6.28504        -7.92082        -0.41195
C         -5.02958        -7.20774        -0.12925
C         -3.75785        -8.02152        -0.31923
C         -2.52404        -7.34294         0.29098
C         -1.22346        -8.08095        -0.27333
C         -0.00983        -7.39227         0.35860
C          1.29326        -8.15664         0.38711
C          2.55948        -7.37345         0.20795
C          3.79537        -8.08771        -0.29102
C          5.05696        -7.33381         0.14426
C          6.37413        -8.03228        -0.18828
C          7.50608        -7.17006        -0.48794
C         -6.19182        -9.37058        -0.63813
C         -5.06617       -10.09504        -0.45417
C         -3.87426        -9.46714         0.23985
C         -2.52507       -10.18735         0.10834
C         -1.32196        -9.57435         0.00794
C         -0.02159       -10.36103        -0.21172
C          1.30527        -9.60796         0.03501
C          2.49712       -10.23160        -0.15673
C          3.84204        -9.56914         0.15425
C          5.07662       -10.14488        -0.52720
C          6.20877        -9.42785        -0.69310
O         -7.35300         2.60387        -1.40184
H         -6.96782         1.70901        -1.54588
O         -5.35904         3.47216         1.52629
O         -6.69379        -4.42816         1.29449
O         -4.32491         8.62376        -2.16391
O         -1.96333        -5.52123        -1.32451
O          5.82923        -7.88876         1.20159
O          6.76516        -2.72813         1.14581
O         -7.97690         1.14028         1.96244
O          3.66480        -0.76240         1.33609
H          4.38402        -0.14663         1.70343
O         -9.81332         5.82273         0.31700
H         -9.64471         5.87199         1.28004
O         -1.49010         0.50311        -2.02076
H         -0.65468         0.18320        -2.44179
O          3.74180        -4.64957        -1.85520
O         -2.25562        -2.29609         1.63094
O          5.72392         4.48971         1.86736
O          7.91101        -1.75483        -2.26754
H          7.11099        -2.23155        -2.61667
O         -4.62828        -5.73364         2.60635
H         -5.42335        -5.13740         2.51993
O         -1.09851        -7.90729        -1.64353
O          8.26586        -0.42825         1.14856
O          3.83706         8.02001        -1.87151
O         -3.59114        -4.98399         1.93958
O          5.42377         0.95995         1.40498
O         -4.33012         6.54895         1.02406
O          2.13001        -7.72664         1.53523
O          5.38238        -0.93722        -1.99462
O          8.10726         2.46640        -1.31010
O         -6.30976         7.95137         1.72374
H         -5.70224         7.23569         2.03701
O          1.10552        -0.15079        -1.98282
O          2.40732         8.26914         2.04898
H          3.36085         8.17499         2.32188
O          7.05524        -5.53277         1.37167
O          2.14868         7.01610         1.38235
O         -3.64731        -8.09948        -1.74638
H         -2.68311        -8.02109        -2.01693
O         -5.04062        -2.28852         1.70893
O          4.97833         3.25251         1.65149
O         10.05190        -2.69418         1.74275
H          9.16035        -2.38938         2.01967
O          2.88487        -1.85626        -2.05825
H          2.53031        -1.10807        -2.59874
O          1.49430         9.54649        -2.27491
H          2.38222         9.13922        -2.42495
O         -3.89479         0.21893        -1.51309
H         -3.77818         0.98738        -2.12000
O         -3.44693         2.83985        -1.74470
O         -4.24721        -9.49470         1.63563
H         -3.65622        -8.87686         2.12593
O         -3.66185        -0.18890         2.05784
H         -3.64139        -1.01753         2.59400
O          0.09200         5.79075        -2.85121
H         -0.69911         6.31232        -3.14768
O         -3.51790         5.27525        -2.19139
O          1.40171        -4.38271         1.50410
O          6.07229         4.10668        -1.68589
H          6.20863         3.28343        -2.21830
O          3.78592        -8.07226        -1.73714
H          2.98837        -7.57548        -2.05126
O          3.74893         6.69115        -2.44556
H          2.97500         6.75870        -3.05782
O         -0.22247        -6.60496         1.56027
O          4.03339        -9.68027         1.57433
H          3.36743        -9.09704         2.01101
O         -3.82769        -3.63370        -1.48297
H         -3.17099        -4.27495        -1.85479
O          3.28038        -2.96647         1.29071
H          2.63091        -2.74555         1.99067
O         -7.32008        -2.93194        -1.88564
O          1.40984         3.38034        -2.67163
H          0.82615         4.06891        -3.07449
O         -2.52744        10.62014        -2.65967
H         -2.69897         9.80725        -3.18629
O        -10.48299         1.53188         2.15519
H         -9.67302         1.62942         2.70782
O          5.99939         1.41755        -2.12147
H          6.53421         0.90722        -2.76474
O          5.64596        -3.27166        -2.11106
H          4.94215        -3.01237        -2.74889
O          4.41920        -5.63373         1.62932
H          5.11062        -5.97282         2.24297
O         -0.02808       -11.56928         0.54661
H         -0.05499       -11.34212         1.49833
O         -7.37690        -5.55084        -2.10670
H         -7.32600        -4.56231        -2.28628
O          8.02439         3.40898         2.21391
H          8.36827         2.54154         2.54901
O          9.61401         1.30929         2.41144
H          9.29140         0.39174         2.57405
O         -6.70389        -0.65222        -1.18254
O         -2.07627         1.75737         1.37361
H         -2.51074         1.08725         1.96152
O          5.07188         7.58129         1.63672
O         -1.93386         7.64188        -2.53532
O         -2.58458        -7.50957         1.69705
H         -1.89166        -6.94570         2.12348
O          1.87492        -6.20623        -1.66755
H          2.21425        -5.49240        -2.26450
O         10.49124        -1.53845        -1.70761
H          9.68645        -1.78871        -2.22248
H         12.24434        -1.00726         0.20457
H         12.04806         1.22157         1.05872
H         10.35700         3.18225        -0.28553
H          9.47857         5.65003         0.41914
H          8.23929         7.77719         0.48616
H          6.93195        10.00337         0.45661
H          4.80104        11.19350         0.21618
H          2.31815        11.15692         0.02120
H         -0.14509        11.18567        -0.49802
H         -2.57723        11.16895        -0.66891
H         -5.06149        11.24564        -0.51087
H         -7.01006        10.05993         0.31786
H         -8.35324         7.77986        -0.28377
H         -8.97808         5.07759        -1.39947
H        -10.84931         3.54335         0.35582
H        -12.07577         1.31470        -0.14916
H        -12.02215        -1.10740        -0.46163
H        -10.90472        -3.24509        -0.41141
H         -9.60724        -5.53995         0.14489
H         -8.38993        -7.79855        -0.75634
H         -7.09009        -9.85971        -1.04733
H         -5.05733       -11.17078        -0.68851
H         -2.54368       -11.28671         0.20662
H         -0.01559       -10.66839        -1.29327
H          2.49675       -11.30099        -0.42317
H          5.04082       -11.18055        -0.89963
H          7.07390        -9.88184        -1.20099
H          8.26250        -7.51381        -1.20865
H          9.76784        -5.47682        -0.15476
H         10.97707        -3.39367         0.03092
