         349
 CSIRO Nanostructure Databank - Neutral Graphene Oxide Data Set
C          1.76757         2.21681         1.55948
C          1.57742         3.57734         1.15402
C          2.74271         1.43029         1.03335
C          2.44256         4.19641         0.26536
C          1.20977         6.36715         0.24797
C          1.18736         7.74967         0.24010
C          2.39277         5.61863         0.00878
C          2.35820         8.53264         0.00300
C          1.22484        10.67740         0.57306
C          1.18193        12.03239         0.46997
C          2.39744         9.90811         0.22080
C          2.34054        12.80014        -0.03080
C          1.15844        15.11906         0.30394
C          1.18478        16.45744         0.22653
C          2.32135        14.31227        -0.15988
C          2.34573        17.15771        -0.44992
C          2.41726        18.62642        -0.13199
C          3.61824         1.88277        -0.10679
C          3.54982         3.40298        -0.32383
C          5.00874         1.34237         0.10266
C          4.79495         4.18187        -0.69085
C          3.59092         6.32627        -0.35913
C          3.51944         7.81272        -0.66716
C          4.78211         5.65494        -0.54308
C          4.84859         8.53120        -0.53625
C          3.72479        10.63118         0.27646
C          3.65155        12.12805         0.03805
C          4.79478        10.03417        -0.65514
C          4.83457        12.82711        -0.03446
C          3.62899        15.02159        -0.15541
C          3.64115        16.42407        -0.16850
C          4.84688        14.29094        -0.04715
C          4.85888        17.13095        -0.03599
C          3.58512        19.27156         0.04790
C          4.86515        18.57473         0.05562
C          6.09271         1.95174        -0.77400
C          6.10322         3.45766        -0.56559
C          7.46115         1.34977        -0.67955
C          7.38097         4.22108        -0.63628
C          6.02235         6.39915        -0.85396
C          6.03617         7.86684        -0.64268
C          7.32557         5.67672        -0.95160
C          7.32211         8.55901        -0.64426
C          6.11836        10.71120        -0.37646
C          6.10559        12.09952        -0.08044
C          7.32381         9.99653        -0.44717
C          7.32490        12.79099         0.10504
C          6.05573        14.99074         0.09877
C          6.07985        16.41084         0.09540
C          7.31123        14.25206         0.50336
C          7.31482        17.13735         0.25883
C          6.05119        19.25816         0.22865
C          7.30910        18.56946         0.32833
C          8.65132         2.07108        -0.80059
C          8.66014         3.51594        -0.84801
C          9.90392         1.39751        -0.91696
C          9.83905         4.25542        -0.98467
C          8.59786         6.43061        -0.87250
C          8.52980         7.86183        -0.78079
C          9.78740         5.71008        -0.98481
C          9.78365         8.68025        -0.98762
C          8.57172        10.68558        -0.18757
C          8.54833        12.10416         0.06544
C          9.77375         9.97072        -0.20334
C          9.79029        12.83297         0.27428
C          8.55585        14.97374        -0.00845
C          8.55088        16.44458         0.36685
C          9.79655        14.19545         0.36992
C          9.72502        17.14305         0.62652
C          8.51414        19.27099         0.49222
C          9.75713        18.59205         0.68294
C         11.10897         2.10906        -0.99484
C         11.11052         3.55188        -0.99093
C         12.35849         1.43829        -1.12132
C         12.34769         4.21704        -0.89160
C         11.04908         6.45049        -1.18042
C         11.06942         7.89400        -0.90692
C         12.36820         5.68253        -1.09520
C         12.27028         8.55532        -0.83211
C         11.04796        10.61599         0.15409
C         11.05413        12.07593         0.62094
C         12.30535         9.97291        -0.34417
C         12.32036        12.83687         0.22264
C         11.02732        14.90994         0.77166
C         10.97013        16.40863         0.91425
C         12.31911        14.24821         0.50413
C         12.23661        17.18971         0.80364
C         10.95026        19.29759         0.91245
C         12.23487        18.61243         1.33400
C         13.58658         2.08472        -0.95719
C         13.57768         3.51718        -0.67707
C         14.78564         1.32160        -1.27325
C         14.74762         4.27628        -0.30384
C         13.57383         6.44956        -0.77102
C         13.52146         7.83649        -0.77946
C         14.77696         5.73026        -0.40395
C         14.77823         8.60404        -0.65930
C         13.45401        10.84609        -0.82222
C         13.47468        12.22924        -0.21393
C         14.78398        10.09714        -0.68824
C         14.74130        13.02532        -0.47853
C         13.52129        14.97955         0.51689
C         13.51283        16.45560         0.70295
C         14.74922        14.37149         0.22496
C         14.73905        17.13836         1.26616
C         13.53844        19.29968         0.95062
C         14.73155        18.62620         0.93131
C         16.00471         1.51973        -0.64548
C         15.91954         3.65414         0.20324
C         17.29773         1.05619        -1.01650
C         17.14955         4.32749         0.36918
C         15.93434         6.45685        -0.10863
C         15.97843         7.88264        -0.19338
C         17.14913         5.81767         0.50941
C         17.16742         8.57341        -0.00606
C         15.97205        10.83433        -0.18931
C         15.97782        12.18857        -0.15854
C         17.16797        10.04668         0.31321
C         17.25745        12.91521        -0.00349
C         15.96888        15.10995         0.44102
C         16.00249        16.42556         0.85728
C         17.24940        14.38836         0.23187
C         17.27315        17.18271         1.17660
C         15.99990        19.27366         0.65723
C         17.22117        18.62446         0.71635
C         18.48051         1.50448        -0.38187
C         18.36200         3.61189         0.43723
C         19.80633         1.31758        -0.78061
C         19.62549         4.20298         0.17716
C         18.43040         6.47675         0.07623
C         18.41701         7.83654        -0.06768
C         19.55164         5.60317        -0.43673
C         19.65079         8.58718        -0.41355
C         18.48212        10.74786         0.05406
C         18.51446        12.14738         0.17891
C         19.69014        10.04225        -0.08870
C         19.74237        12.83007         0.27835
C         18.48949        15.01120         0.78527
C         18.53430        16.47928         0.76391
C         19.76663        14.24825         0.69251
C         19.72161        17.14681         0.59805
C         18.47359        19.27319         0.45161
C         19.70064        18.60085         0.44616
C         20.92753         2.08327        -0.28400
C         20.82641         3.46474         0.12750
C         22.21513         1.53422        -0.47098
C         22.08020         4.23739         0.50841
C         20.90190         6.30542        -0.55371
C         20.91417         7.81354        -0.61111
C         22.17876         5.59094        -0.23895
C         22.18682         8.50701        -0.24057
C         20.91231        10.74162        -0.08150
C         20.96045        12.13423         0.15296
C         22.18108         9.98022        -0.03676
C         22.23241        12.85599         0.23918
C         21.01780        15.00809         0.54395
C         20.97918        16.41478         0.48464
C         22.23209        14.29188         0.37387
C         22.19497        17.13093         0.30190
C         20.94083        19.25625         0.15625
C         22.15164        18.57193         0.08195
C         23.44527         2.13798        -0.05981
C         23.38896         3.46498         0.44884
C         24.65436         1.37049        -0.27998
C         24.56922         4.24911         0.77257
C         23.43594         6.38359        -0.15277
C         23.48145         7.78279        -0.34177
C         24.63762         5.71805         0.30801
C         24.65849         8.51716        -0.12546
C         23.44420        10.74715        -0.26333
C         23.44279        12.18557         0.06343
C         24.73671         9.97802        -0.32484
C         24.69515        12.87864         0.01906
C         23.45696        15.01246         0.28226
C         23.41718        16.43156         0.27777
C         24.70033        14.29911         0.10844
C         24.67532        17.19806         0.17211
C         23.35713        19.21291        -0.38125
C         24.56698        18.54862        -0.42696
C         25.88165         1.57134         0.38245
C         25.88053         3.61805         0.98363
C         27.20139         1.21775         0.05032
C         27.09669         4.15385         0.70565
C         25.95969         6.31724        -0.05117
C         25.94578         7.82377        -0.07285
C         27.26192         5.50919         0.07196
C         27.09806         8.56335         0.52153
C         26.00779        10.71733        -0.05712
C         25.91867        12.17687        -0.22279
C         27.12957        10.06527         0.41527
C         27.07084        12.93096        -0.55171
C         25.94447        14.97899         0.05452
C         25.98628        16.45924         0.10926
C         27.14650        14.31469        -0.23561
C         27.12191        17.06505        -0.64428
C         25.68867        19.01959        -1.18957
C         26.83633        18.28099        -1.37653
C         28.34638         1.96259         0.51802
C         28.31978         3.37305         0.79669
C         29.62776         1.33749         0.49440
C         29.52240         4.10533         0.98729
C         28.39112         6.27771         0.72999
C         28.30920         7.75939         0.90879
C         29.48976         5.57077         1.12952
C         29.63393         8.47915         0.81000
C         28.27391        10.69397         1.27035
C         28.47025        12.23954         1.29501
C         29.58952         9.97634         1.04471
C         29.67245        12.88026         0.66964
C         28.42217        15.11258         0.13536
C         28.35331        16.42763        -0.68600
C         29.69957        14.23678         0.20910
C         29.43625        17.08852        -1.41896
C         27.74607        18.65413        -2.51228
C         29.14215        18.12152        -2.34916
C         30.78393         2.02974         0.80696
C         30.75564         3.42362         1.06459
C         31.95954         4.14906         1.42482
C         30.70040         6.26420         1.66503
C         30.76139         7.78274         1.56218
C         31.94057         5.46529         1.74484
C         32.02816         8.54697         1.49897
C         30.78825        10.64015         1.00883
C         30.85582        12.09131         0.76271
C         32.02335         9.85773         1.15974
C         32.10402        12.69515         0.52212
C         30.98825        14.79483         0.07067
C         30.81024        16.85301        -1.18368
C         32.16548        14.04487         0.23081
C         31.82453        17.47782        -1.92208
C         30.15189        18.72793        -3.10647
C         31.49334        18.38523        -2.92644
O         21.67655         5.65977        -1.62756
O         30.45190         7.14529         2.82403
O         11.99251         9.89677         1.08448
O         10.91410        15.55590         2.10234
O         15.90968         2.30654         0.53083
O         15.09195         9.36364        -1.92710
O         18.31051         2.27382         0.79894
O         27.34304         8.12096         1.91887
O         11.77773         6.05947        -2.39473
O          6.57679         5.99893        -2.18016
O         12.91201        17.09374        -0.48911
O          2.07176        13.47588        -1.33438
O          3.85932         3.73183        -1.72051
O         27.76977        12.87847         2.08226
O         22.15317         9.08072         1.13583
O         20.20108         8.33807        -1.76903
O         17.44066        13.88804        -1.12478
O         25.56825        17.10556         1.34754
O         26.04562         7.02928        -1.32792
O          6.76877         3.86658         0.67363
O         24.45468         5.35668         1.75069
O         24.05719        10.43294        -1.56195
O         19.05171        14.41631         2.00668
O         25.80196         2.35140         1.56745
O         31.25040        16.14818        -0.07436
O         14.75106        13.33161        -1.90590
H         14.27137        12.59953        -2.36794
O         21.84662         4.61230         1.89759
H         22.69650         4.97692         2.25036
O          8.46742        14.94368        -1.46189
H          9.23691        15.42315        -1.83361
O         14.64752        17.00140         2.71042
H         15.53066        17.25462         3.07710
O          3.06398         1.26072        -1.34355
H          2.38873         1.87344        -1.70562
O         17.04064         6.08020         1.96355
H         16.22998         5.63369         2.28864
O         17.01361        10.08591         1.78293
H         17.65525         9.45397         2.17325
O         13.22060        11.05472        -2.24692
H         13.71738        10.33548        -2.71419
O         27.71498         5.20788        -1.27955
H         27.52098         6.00025        -1.83320
O         27.90454        10.41900         2.64057
H         27.40590        11.20580         2.96477
O         17.36184        17.23952         2.65753
H         17.78348        16.40408         2.95919
O         28.22417        15.53810         1.50296
H         28.00607        14.73348         2.03608
O         19.12192         5.30640        -1.80398
H         19.93382         5.27415        -2.36219
O         28.10129        12.32218        -1.21465
H         27.84353        11.40110        -1.43351
O          4.22280        10.42556         1.63720
H          3.51890        10.70151         2.26098
O         12.17536        18.54165         2.78791
H         12.35547        19.43384         3.14879
O          7.36281        14.29853         1.95487
H          6.66505        13.70880         2.30801
O          4.43434        10.33334        -2.02534
H          3.79806         9.63865        -2.32786
O          5.66522         1.63191        -2.13344
H          4.67520         1.53457        -2.13213
O         27.15595        18.12155        -3.71850
H         27.81713        18.19955        -4.43683
O         11.07009        12.05567         2.07208
H         11.67274        11.32537         2.34218
O          3.18183         7.87767        -2.10747
H          3.77822         7.25479        -2.57860
O         29.97276         8.32860        -0.61328
H         30.85649         8.73251        -0.75425
O          9.72545         9.11209        -2.40281
H          9.65765         8.30337        -2.95546
O          2.10034        17.06137        -1.88831
H          2.08232        16.10795        -2.12144
H          1.11468         1.82146         2.35163
H          0.78232         4.15789         1.64193
H          2.87439         0.39916         1.39137
H          0.28160         5.82979         0.48910
H          0.24965         8.24922         0.51966
H          0.30220        10.14904         0.85424
H          0.23589        12.55873         0.66028
H          0.27701        14.59985         0.70932
H          0.32171        17.05368         0.56058
H          1.47006        19.18702        -0.12709
H          5.02377         0.23614         0.14040
H          3.59606        20.35802         0.22554
H          7.51842         0.24997        -0.70734
H          6.04137        20.35517         0.31562
H          9.92287         0.29758        -0.92064
H          8.49939        20.37127         0.50364
H         12.35079         0.35469        -1.31015
H         10.89467        20.39581         0.99492
H         14.68825         0.53398        -2.03547
H         13.52177        20.38435         0.75150
H         17.38909         0.44448        -1.92500
H         15.97922        20.34459         0.39594
H         20.02684         0.53774        -1.52544
H         18.45951        20.34934         0.21688
H         22.27482         0.52573        -0.90815
H         20.92799        20.33997        -0.03713
H         24.59229         0.56743        -1.03063
H         23.28242        20.23257        -0.78998
H         27.38499         0.38340        -0.64431
H         25.55994        19.94764        -1.76874
H         29.68635         0.26427         0.26149
H         27.79805        19.77948        -2.60972
H         31.74757         1.50062         0.83782
H         32.90116         3.58354         1.49101
H         32.85799         5.96145         2.09225
H         32.97439         8.05393         1.76488
H         32.98746        10.38190         1.13596
H         33.03780        12.12599         0.59192
H         33.13278        14.54925         0.11126
H         32.87304        17.25807        -1.68339
H         29.87892        19.51184        -3.82824
H         32.27772        18.87048        -3.52216
