         651
 CSIRO Nanostructure Databank - Neutral Graphene Oxide Data Set
C          5.90942        31.73636         0.10014
C          5.86006        33.05854        -0.14917
C          8.22005        27.45229        -0.77365
C          7.98309        28.56633        -0.02704
C          6.93860        29.56657        -0.10348
C          8.40379        31.66603         0.16004
C          7.14447        30.93198         0.10349
C          8.29503        33.18279         0.32291
C          7.11522        33.80645        -0.53186
C          7.85855        36.21720        -0.92099
C          7.02970        35.30173        -0.29494
C          8.05161        37.59515        -0.45697
C         10.89314        23.21568        -0.43619
C         10.88042        24.63210        -0.60659
C          9.65798        25.32237        -0.73627
C         10.86638        27.44459        -0.34510
C          9.58609        26.80240        -1.03741
C         10.91116        28.95790        -0.38978
C          9.88891        29.65709         0.19388
C         10.90136        31.79932        -0.20932
C          9.68154        31.07962         0.04358
C         10.88602        33.25083        -0.37809
C          9.56278        33.95440        -0.00721
C         10.82529        36.09689        -0.22398
C          9.77479        35.32343         0.43462
C         10.50480        37.36785        -0.73380
C          9.31450        38.18690        -0.47933
C         10.73632        40.28025        -0.06767
C          9.52244        39.60161        -0.30383
C         10.79163        41.70263        -0.00226
C         13.35246        18.92563        -0.24556
C         13.34313        20.33648        -0.28099
C         12.13509        21.06935        -0.33340
C         13.33901        23.21731        -0.43411
C         12.10482        22.49598        -0.38267
C         13.35949        24.63632        -0.47998
C         12.14257        25.32608        -0.61981
C         13.41252        27.48853        -0.41935
C         12.16250        26.79859        -0.92130
C         13.46277        28.94135        -0.54771
C         12.13605        29.70936        -0.67290
C         13.38405        31.83402        -0.23859
C         12.13141        31.14048        -0.34768
C         13.36530        33.26657        -0.14523
C         12.14586        34.00607        -0.28148
C         13.41727        36.11277        -0.38679
C         12.10606        35.40392        -0.39636
C         13.50737        37.63956        -0.41291
C         12.31632        38.46383        -0.60384
C         13.05341        40.14164         1.06686
C         12.02547        39.59997         0.08769
C         13.03026        41.73341         1.20753
C         11.96424        42.40879         0.33954
C         13.20110        44.57273         0.51693
C         12.07619        43.79385         0.11875
C         13.33369        45.91370         0.16825
C         15.85946        14.59019        -0.36822
C         15.74910        15.99945         0.05373
C         14.56367        16.79208        -0.24718
C         15.81875        18.91807        -0.00995
C         14.56322        18.18845        -0.14047
C         15.82026        20.35496        -0.15919
C         14.60894        21.03374        -0.32343
C         15.92038        23.26214        -0.49854
C         14.58994        22.47594        -0.58197
C         15.83926        24.70252        -0.15970
C         14.61344        25.36036        -0.27644
C         15.78167        27.52415         0.26466
C         14.57985        26.80024        -0.12569
C         15.75602        28.92491         0.39157
C         14.62547        29.67926        -0.04114
C         15.89411        31.83418         0.09833
C         14.58896        31.08659        -0.03157
C         15.69093        33.20335         0.72299
C         14.54047        33.99009         0.22439
C         15.75289        36.09812         0.61990
C         14.56359        35.37902         0.21912
C         15.80115        37.51721         0.56796
C         14.60125        38.30201         0.31121
C         15.64063        40.26108         1.42100
C         14.43187        39.56374         0.82574
C         15.59188        41.77207         1.24998
C         14.39711        42.40590         1.06288
C         15.60712        44.65996         1.45528
C         14.33671        43.88241         1.18260
C         15.60912        46.19487         1.36993
C         14.47718        46.72900         0.49179
C         15.65236        48.94512         0.65327
C         14.53421        48.05171         0.15063
C         15.80156        50.16839        -0.19909
C         18.41019        10.37332        -0.93540
C         18.36745        11.75221        -0.80402
C         17.04019        12.47640        -0.89622
C         18.31956        14.59048        -0.17990
C         17.05193        13.92875        -0.44931
C         18.33484        16.02026         0.08896
C         17.06142        16.76250         0.27276
C         18.26541        18.96077         0.12069
C         17.03245        18.23053         0.10000
C         18.28849        20.34854         0.16347
C         17.07380        21.09194        -0.06091
C         18.38228        23.24538        -0.06709
C         17.12151        22.48494        -0.18067
C         18.32102        24.70613         0.25643
C         17.01126        25.41221         0.27004
C         18.24513        27.51099         0.84810
C         17.00281        26.79098         0.48784
C         18.19004        28.90260         1.06529
C         16.87075        29.62158         1.13129
C         18.18788        31.78048         1.11315
C         17.01030        31.06875         0.76690
C         18.16755        33.19122         1.28338
C         16.90253        33.93864         1.21107
C         18.10548        36.11710         1.31066
C         16.91413        35.40912         1.07501
C         18.14784        37.52560         1.23540
C         16.97453        38.21033         0.90029
C         18.13235        40.43189         1.04492
C         16.87600        39.70217         0.71512
C         18.11291        41.77793         1.24791
C         16.85078        42.52095         1.31331
C         18.13879        44.67629         1.52711
C         16.87151        43.90276         1.35946
C         18.21676        46.05679         0.90083
C         16.93581        46.84423         1.00161
C         18.23314        48.89830         0.62614
C         16.96399        48.18041         0.73653
C         18.26027        50.20649         0.15180
C         17.02969        50.77514        -0.40131
C         18.35084        52.66458        -1.29572
C         17.13455        51.95436        -1.17744
C         18.42076        53.72136        -2.19913
C         20.97292         6.17134        -1.25771
C         20.91851         7.56895        -1.31266
C         19.71319         8.25837        -1.08470
C         20.85582        10.43261        -1.12280
C         19.64764         9.67207        -1.06559
C         20.82637        11.78776        -0.80837
C         19.58328        12.48536        -0.62875
C         20.76333        14.55901         0.23571
C         19.52637        13.87658        -0.29635
C         20.83127        16.04323        -0.15589
C         19.51270        16.74075         0.07061
C         20.85181        18.96907         0.20663
C         19.52900        18.20301        -0.00618
C         20.81234        20.36937         0.59953
C         19.49736        21.10026         0.68640
C         20.80755        23.23544         0.76803
C         19.68653        22.47885         0.06486
C         20.75720        24.60463         1.00441
C         19.41114        25.29889         1.12557
C         20.64271        27.43653         1.73468
C         19.45683        26.80042         1.03370
C         20.69240        28.92118         1.52823
C         19.36911        29.62182         1.68261
C         20.65090        31.78584         1.45433
C         19.42485        31.08863         1.35831
C         20.64718        33.18108         1.65012
C         19.36645        33.87100         1.72455
C         20.65805        36.04639         1.28680
C         19.34563        35.42397         1.73460
C         20.69428        37.54858         1.36289
C         19.39540        38.29164         1.63261
C         20.66909        40.34066         0.80459
C         19.37816        39.64746         0.93703
C         20.65930        41.83427         0.79024
C         19.38362        42.53416         1.13653
C         20.72959        44.66621         1.43454
C         19.44506        43.94205         1.60602
C         20.67059        46.13466         1.84733
C         19.45879        46.86182         1.25424
C         20.64453        49.07647         1.34708
C         19.45055        48.21725         1.06184
C         20.63921        50.51487         0.90570
C         19.46406        51.02420         0.14432
C         20.62478        53.26888        -0.24018
C         19.51544        52.23716        -0.51507
C         20.78390        54.31759        -1.36303
C         19.61606        54.54140        -2.36084
C         21.13595        55.80871        -3.84971
C         19.92274        55.14877        -3.63972
C         21.36444        56.49626        -5.07280
C         23.39439         3.30326        -1.59119
C         22.17007         4.03042        -1.52133
C         23.37341         6.14302        -1.96754
C         22.13639         5.42050        -1.59701
C         23.41699         7.59015        -1.64215
C         22.11070         8.31017        -1.90637
C         23.34527        10.34043        -0.82796
C         22.16263         9.84913        -1.65767
C         23.34172        11.63682        -0.44360
C         22.12855        12.49049        -0.65863
C         23.31323        14.40987         0.59913
C         22.08355        13.89410        -0.14750
C         23.29236        15.97069         0.71519
C         21.98003        16.74881         0.56738
C         23.20306        18.88421         0.99668
C         22.05480        18.21449         0.54110
C         23.22750        20.32565         1.05821
C         22.00408        21.04915         0.90137
C         23.22340        23.18691         1.24784
C         22.01482        22.50114         0.99499
C         23.21209        24.61588         1.35281
C         21.96477        25.32001         1.31972
C         23.18025        27.45183         1.56898
C         21.95861        26.72568         1.50278
C         23.14120        28.87294         1.50378
C         21.90207        29.60281         1.48631
C         23.10641        31.78762         1.55136
C         21.91988        31.07245         1.47679
C         23.16587        33.21407         1.76884
C         21.88342        33.89082         1.98645
C         23.17616        36.10331         1.76654
C         21.88667        35.42472         1.92355
C         23.18188        37.50548         1.43187
C         21.89279        38.19767         1.33648
C         23.09661        40.34303         0.82363
C         21.88232        39.70492         1.46109
C         23.11800        41.83222         0.84772
C         21.94915        42.53775         0.98710
C         23.16309        44.72078         0.94735
C         21.89367        43.98597         1.18455
C         23.18831        46.20392         1.06733
C         21.98562        46.90953         1.61207
C         23.22839        49.09511         1.03556
C         21.98205        48.40252         1.47964
C         23.23308        50.46722         0.78000
C         21.95869        51.24013         0.76952
C         23.26565        53.19860        -0.28161
C         21.96706        52.62511         0.17426
C         23.29601        54.32622        -1.08924
C         22.11777        54.77452        -1.81232
C         23.48577        56.36169        -3.18512
C         22.22022        55.64542        -2.89358
C         23.72281        56.90895        -4.52892
C         22.63288        57.01411        -5.43940
C         24.11088        58.11687        -7.03605
C         22.84875        57.63834        -6.69740
C         24.60831         3.92452        -1.71486
C         25.90934         6.12382        -1.70136
C         24.68489         5.36580        -1.96952
C         25.87484         7.48682        -1.42378
C         24.59089         8.18846        -1.30156
C         25.85752        10.30377        -0.77491
C         24.58681         9.50279        -0.56218
C         25.84717        11.65284        -0.49434
C         24.61264        12.21602         0.19642
C         25.53446        14.32163        -0.63677
C         24.55455        13.71383         0.07453
C         25.58990        16.41477        -0.18948
C         24.47355        16.83909         0.61240
C         25.77992        18.83370         1.29368
C         24.44544        18.16280         1.02499
C         25.72074        20.34499         1.18075
C         24.46901        21.02824         1.18983
C         25.69740        23.14522         1.40315
C         24.46912        22.45286         1.28057
C         25.67057        24.57307         1.73456
C         24.42427        25.33808         1.57768
C         25.71470        27.47533         1.73149
C         24.44766        26.74052         1.62731
C         25.62671        28.90006         1.79745
C         24.42080        29.61586         1.25848
C         25.65079        31.82592         1.83347
C         24.37258        31.05114         1.73888
C         25.66287        33.27935         1.43119
C         24.35574        33.94498         1.79876
C         25.64192        36.09677         2.02310
C         24.35958        35.37425         1.90674
C         25.67749        37.56546         1.57608
C         24.38340        38.17414         1.22866
C         25.67399        40.26803         0.49491
C         24.36702        39.55300         0.71283
C         25.67001        41.77904         0.44484
C         24.44211        42.49394         0.94332
C         25.71413        44.73826         0.87198
C         24.45807        43.98396         1.06155
C         25.66687        46.16333         0.96028
C         24.48969        46.91172         1.10861
C         25.67065        49.08489         1.02330
C         24.46715        48.35942         1.06892
C         25.69501        50.49514         0.83012
C         24.46361        51.18535         0.60657
C         25.75142        53.17139        -0.04647
C         24.49712        52.55089         0.15508
C         25.81053        54.53571        -0.60450
C         24.55008        55.10183        -1.20677
C         26.03169        56.37802        -2.87157
C         24.68911        56.11774        -2.30158
C         26.14963        57.06885        -4.05097
C         25.01163        57.35712        -4.89596
C         25.18973        57.96752        -6.15988
C         27.07967         8.24443        -1.34975
C         28.27116        10.41585        -1.27164
C         27.08733         9.64970        -1.15627
C         28.25211        11.82820        -1.11577
C         27.01225        12.45320        -0.75976
C         28.03577        14.73531        -0.86335
C         26.90610        13.86593        -0.76083
C         28.04564        16.18171        -0.60888
C         26.87268        16.87183        -0.07879
C         28.13016        19.05279         0.22645
C         26.89062        18.27599         0.40410
C         28.20747        20.33216         1.00888
C         26.91807        21.06458         1.12101
C         28.17850        23.22081         1.07755
C         26.93985        22.47766         1.27115
C         28.14877        24.61821         1.07563
C         27.00233        25.34317         1.62478
C         28.21570        27.45379         1.19465
C         26.96181        26.80890         1.54978
C         28.51205        28.75282         1.67307
C         26.71764        29.71504         2.15992
C         28.23615        31.72775         2.13556
C         26.90276        31.05618         1.81477
C         28.21410        33.22194         1.77244
C         26.92993        33.99283         1.87522
C         28.12332        36.23404         2.33463
C         26.91958        35.33780         2.02912
C         28.14680        37.37512         1.30072
C         26.97037        38.15032         1.07659
C         28.13080        40.33893         0.64964
C         26.96111        39.52937         0.68035
C         28.10250        41.79983         1.10349
C         26.99296        42.57037         0.36703
C         28.18133        44.68966         0.87851
C         26.93234        44.03204         0.78750
C         28.22203        46.11735         1.00424
C         26.95270        46.86172         0.83158
C         28.18822        49.03373         1.36412
C         26.94705        48.35024         0.91879
C         28.20333        50.52941         1.15341
C         26.94753        51.18378         0.71595
C         28.27565        53.16723         0.10146
C         26.98091        52.50584         0.25624
C         28.33602        54.62035        -0.32210
C         27.11899        55.03782        -1.10685
C         27.19875        55.89642        -2.15406
C         29.36766        12.67586        -1.31855
C         30.47283        14.86919        -1.28968
C         29.29688        14.08489        -1.15108
C         30.48083        16.25854        -1.04739
C         29.25319        16.89804        -0.64795
C         30.65876        18.92096         0.00802
C         29.31910        18.42002        -0.50345
C         30.74692        20.29493         0.61878
C         29.50826        21.06615         1.03616
C         30.57040        23.21527         0.42387
C         29.44511        22.53477         0.84898
C         30.39184        24.57150        -0.12200
C         29.15768        25.35948         0.30387
C         30.39473        27.59058         0.00621
C         29.24013        26.83657         0.43782
C         30.48913        29.03984         0.31509
C         29.47891        29.62339         1.14581
C         30.65156        31.76496         1.45054
C         29.48488        31.03317         1.54881
C         30.74869        33.11013         2.20219
C         29.49861        33.96436         1.89089
C         30.76676        36.16304         2.06141
C         29.48517        35.38144         2.48552
C         30.68250        37.40783         1.26893
C         29.39667        37.76983         0.78601
C         30.64314        40.35768         0.60154
C         29.37241        39.77013         0.36455
C         30.64381        41.81351         0.73525
C         29.42854        42.51790         0.89746
C         30.66104        44.64319         0.80327
C         29.43164        43.93644         0.86967
C         30.65837        46.13014         0.55767
C         29.42069        46.80913         1.08212
C         30.78103        49.00977         1.21100
C         29.46351        48.24916         1.38581
C         30.68420        50.43910         0.85952
C         29.50701        51.14694         0.82294
C         29.45165        52.51323         0.34998
C         31.68520        17.01305        -1.18652
C         32.98399        19.09339        -0.89066
C         31.82442        18.35044        -0.72998
C         33.16026        20.44345        -0.32788
C         32.01782        21.08047         0.44732
C         33.14573        23.39518         0.07510
C         31.93383        22.58945         0.48354
C         32.90660        24.84048        -0.22856
C         31.55946        25.32860        -0.71093
C         32.61078        27.45022        -1.15885
C         31.45707        26.84635        -0.58143
C         32.73238        29.49813        -0.69283
C         31.64936        29.87367         0.13241
C         33.06156        31.76052         0.85949
C         31.81308        31.14141         0.84487
C         33.26010        33.13599         1.38323
C         32.08392        33.87564         1.97007
C         33.20717        36.10162         1.25563
C         32.07399        35.39473         1.90032
C         33.15130        37.47091         1.00681
C         31.85525        38.15773         0.94504
C         33.07047        40.28463         0.33225
C         31.81230        39.56252         0.61757
C         33.08696        41.80903         0.29867
C         31.85542        42.53380         0.64164
C         33.15176        44.66349         0.67291
C         31.87747        43.94255         0.72206
C         33.15868        46.07103         0.75948
C         31.96752        46.84059         0.82777
C         31.99091        48.22309         0.90418
C         34.17372        21.34040        -0.91083
C         35.32946        23.41060        -1.34873
C         34.26189        22.68485        -0.65731
C         35.74733        24.67529        -1.02590
C         33.96498        25.70393        -0.29607
C         35.08100        27.73035        -1.56890
C         33.89975        26.96442        -0.98362
C         35.20631        29.14059        -0.95334
C         34.08394        29.84372        -0.44244
C         35.59476        31.79118         0.21494
C         34.25963        31.03020         0.40606
C         35.57580        33.26078         0.39747
C         34.45918        33.89199         0.90757
C         35.73580        36.10608         0.77250
C         34.48306        35.34687         1.17290
C         35.62206        37.54870         0.53067
C         34.38361        38.20771         0.67826
C         35.55945        40.35427         0.26391
C         34.35818        39.60324         0.45751
C         35.54947        41.79048         0.29846
C         34.37540        42.52298         0.42662
C         34.35302        43.93288         0.58575
C         36.60181        25.60042        -1.72413
C         37.53020        27.79864        -2.01187
C         36.42289        26.98457        -1.66310
C         37.56671        29.17047        -1.73357
C         36.45346        29.81829        -1.05976
C         37.73654        31.93182        -1.04335
C         36.59178        31.17530        -0.66545
C         37.82980        33.31095        -0.72033
C         36.75363        33.99429        -0.05330
C         37.96194        36.13147        -0.35095
C         36.82848        35.37922         0.11449
C         37.96990        37.53112        -0.23617
C         36.79646        38.25497         0.12718
C         36.76994        39.66296         0.08081
C         38.72875        29.92534        -2.04085
C         39.99566        32.03777        -2.07418
C         38.81874        31.27982        -1.73749
C         40.08073        33.36367        -1.77662
C         38.99506        34.05162        -1.12095
C         39.05858        35.42836        -0.91887
O         24.90148        31.41111         3.05131
O         30.27514        48.60899         2.54634
O         12.60907        42.05214         2.50266
O         25.24432        15.55316        -1.21650
O          9.97614        33.75388        -1.39318
O         13.85505        36.84747        -1.58509
O         18.73228        44.35587         2.81319
O         26.48224        24.86856         2.91157
O         25.53214        41.01414        -0.78020
O         35.48180        35.73290         2.17638
O         33.12961        20.51644         1.16201
O         18.61296        24.29020        -1.11188
O         28.95928        20.45182         2.25010
O         23.01526        45.56448        -0.25627
O         22.45460        16.29206         1.86955
O         19.88414        55.42206        -1.19924
O         29.25429        24.74379        -1.04039
O         20.31687        18.68932        -1.17160
O         32.86713        23.11781         1.48876
O         22.27601        47.74618         2.76958
O         27.91899        36.85890         3.56739
O         14.70535        44.27447         2.55313
O         27.81549        29.12031         2.82032
O         19.86961        42.45462        -0.26719
O         11.41277        37.97854        -1.58524
O         32.43949        28.69413        -1.80425
O         16.28661        16.27489         1.41241
O         23.98394         5.76796        -3.23852
O         35.20918        25.25622         0.14598
O         35.32393        30.97852         1.39913
O         22.01498        52.42167         1.63259
O         20.36698        50.14629         2.29873
O         21.75602        34.74137         3.18258
O         20.08605        39.67360        -0.35748
O         32.98076        41.03921        -0.94348
O         28.03845        49.92205         2.49035
O         33.10848        33.32636         2.85524
O         15.88834        33.34537         2.15010
O         30.88387        19.07573         1.42326
O         19.44705        38.52107         3.02504
O         24.58709        43.13033         2.26221
O         22.30125        13.65389        -1.55350
O         25.03489        55.55542         0.10671
O         19.23853        34.72606         2.95146
O         15.32969        22.90343        -1.78400
O         27.03745        19.17874        -0.76453
O         29.37318        38.57187        -0.37492
O         28.96473        33.66951         0.56599
O          8.95378        28.93194         0.94172
O         27.06536        47.70737        -0.40139
O         25.66194        37.17623         2.99516
O         23.87309        57.30631        -2.10903
O         12.93583        29.41382        -1.86561
O         31.74103        36.12858         3.12789
O         23.44477        39.70675        -0.43662
O         27.39043        42.65064        -1.01974
H         26.90989        41.93210        -1.50077
O         26.13066        18.49867         2.66292
H         25.49792        18.94067         3.26644
O         20.44912        46.11299         3.27342
H         20.84456        46.93623         3.64667
O         21.13293        16.11841        -1.56208
H         20.96905        17.05115        -1.84871
O         10.84408        27.03844         1.04045
H         10.07493        27.49103         1.46161
O         24.57813        29.73798        -0.20662
H         24.51504        28.83727        -0.58918
O         16.65904        39.93975        -0.71099
H         17.52652        39.86463        -1.16462
O          9.65406        26.91914        -2.48035
H         10.56769        26.66305        -2.77286
O          7.99870        33.46767         1.72339
H          7.17491        32.98530         1.95739
O         19.07530        29.59881         3.14868
H         18.08132        29.65946         3.23504
O         29.54249        54.90119        -1.02897
H         29.57871        54.33093        -1.82357
O         29.29492        18.93975        -1.86487
H         28.35122        18.91798        -2.15259
O         18.35352        45.73333        -0.53320
H         18.37271        46.57619        -1.03425
O         22.36902        10.51341        -2.92865
H         22.07655         9.88961        -3.63497
O         16.31290        32.14852        -1.27792
H         16.31940        31.31224        -1.78991
O         23.20329        13.92370         1.96675
H         22.51834        14.48857         2.40784
O         24.68915        11.76908         1.57902
H         24.13025        12.39497         2.10602
O         16.01410        11.75348        -0.20341
H         16.18232        11.82493         0.75826
O         12.22518        26.91022        -2.37624
H         12.47195        27.85172        -2.57820
O          9.20896        35.78766         1.52906
H          8.54831        35.11978         1.86952
O          8.54558        35.90959        -2.04294
H          8.38693        34.95553        -2.27042
O         24.54902         9.11839         0.84756
H         24.63168         9.95808         1.37172
O         15.26405        49.37486         1.99051
H         15.22518        48.55288         2.54380
O         30.70838        32.76416         3.59059
H         31.62941        32.78684         3.93587
O         30.51437        46.27498        -0.91078
H         29.72933        45.75273        -1.18658
O         34.77930        27.94760        -2.98207
H         33.89178        28.37518        -3.02650
O         12.67892        39.62088         2.36590
H         12.45480        40.44700         2.90133
O         28.30788        31.71289         3.57616
H         28.34238        30.77535         3.87057
O         29.59845        35.12437         3.88227
H         29.06422        35.83395         4.33358
O          7.40198        33.51401        -1.91896
H          6.56272        33.56551        -2.42122
O         27.76999        41.82664         2.50895
H         28.40650        41.26961         3.00331
O         15.72138        39.95860         2.82375
H         14.89355        40.27121         3.24830
O         31.54901        25.03584        -2.14913
H         30.60437        25.07430        -2.42769
O         16.43586        29.58499         2.59293
H         15.88117        30.38184         2.74798
O         20.16670        22.23646        -1.27663
H         19.97050        23.04377        -1.80436
O         25.70989        33.29194        -0.03482
H         26.64850        33.21828        -0.31326
O         20.37515        27.22944         3.19107
H         19.84748        28.02132         3.48874
O         20.72409        35.70472        -0.13947
H         21.21185        36.41343        -0.61246
O         19.21203        21.33060         2.09934
H         19.09399        20.46487         2.54308
O         21.89860         8.13454        -3.34932
H         22.30352         7.28335        -3.62569
O         15.33217        46.69878         2.71138
H         14.81712        45.98761         3.17018
O         20.13833        54.00616         0.89753
H         20.45104        53.53584         1.70582
O         18.95854        25.00807         2.49168
H         19.46708        25.61747         3.08879
O         21.80189        40.03066         2.86161
H         21.00733        39.53021         3.21573
O         20.61265        14.50580         1.68321
H         20.17743        13.66074         1.92108
H          4.96975        31.19275         0.28729
H          4.89527        33.58750        -0.15940
H          7.47599        27.20055        -1.54621
H          5.91742        29.24326        -0.36097
H          6.53251        35.62117         0.63277
H          7.18629        38.16693        -0.09227
H          9.93862        22.67041        -0.40546
H          8.72730        24.73360        -0.75050
H          8.60968        40.21809        -0.29038
H          9.88739        42.27344        -0.27089
H         12.39830        18.38048        -0.29239
H         11.18133        20.52171        -0.32857
H         11.28406        44.29869        -0.46022
H         12.51373        46.39824        -0.38683
H         14.93355        14.05518        -0.62996
H         13.64478        16.27448        -0.56118
H         13.69657        48.51665        -0.39408
H         14.89549        50.64148        -0.60791
H         17.46739         9.80867        -0.98388
H         16.74369        12.46194        -1.98344
H         16.23931        52.34767        -1.68082
H         17.56419        53.91329        -2.86252
H         20.07517         5.61967        -0.93685
H         18.79868         7.67946        -0.88261
H         19.18895        55.07557        -4.45526
H         20.52797        56.59215        -5.78071
H         23.35861         2.21517        -1.43753
H         21.24449         3.48385        -1.28919
H         24.26611        58.60256        -8.00949
H         22.00794        57.74354        -7.39745
H         25.54234         3.35476        -1.60356
H         26.87361         5.59269        -1.69965
H         27.15166        57.31322        -4.43517
H         26.18890        58.32106        -6.45126
H         28.03354         7.72862        -1.53903
H         29.21509         9.91179        -1.52752
H         28.35949        55.24837         0.61277
H         28.18966        56.23966        -2.49002
H         30.33441        12.23114        -1.59940
H         31.41573        14.36672        -1.55360
H         31.60574        50.93488         0.51599
H         30.39923        53.04888         0.18595
H         32.56707        16.50903        -1.61199
H         33.80912        18.67694        -1.49000
H         34.12736        46.59334         0.79673
H         32.95933        48.74887         0.89461
H         34.93794        20.87536        -1.55376
H         35.79617        22.90235        -2.20642
H         36.51689        42.31452         0.28709
H         35.31006        44.47623         0.60756
H         37.52485        25.22370        -2.19726
H         38.44795        27.31445        -2.38166
H         38.86621        38.09145        -0.53952
H         37.69121        40.21999        -0.14146
H         39.56998        29.42382        -2.54193
H         40.82261        31.52348        -2.58466
H         40.97564        33.94189        -2.04826
H         39.94524        35.98948        -1.24823
