         252
 CSIRO Nanostructure Databank - Neutral Graphene Oxide Data Set
C         31.12951        31.78971         2.35228
C         31.15153        32.93088         2.87996
C         30.63132        36.09560         1.93762
C         30.48172        37.30800         1.62315
C         30.75535        40.56982         1.85014
C         30.75601        41.86184         1.94090
C         32.59978        29.20776        -0.00044
C         31.75192        29.81552         0.72486
C         33.38296        31.33103         1.62425
C         31.89118        30.85771         1.63279
C         33.34012        32.71405         0.91738
C         31.94688        34.12294         2.80556
C         32.84985        35.87435         1.13326
C         31.73742        35.22232         1.95686
C         32.90763        37.39340         1.18316
C         31.68432        38.18181         1.61843
C         32.72107        40.33750         0.63776
C         31.61834        39.63593         1.37428
C         32.82953        41.85203         0.69140
C         31.81944        42.62396         1.53008
C         33.14564        44.59446         0.98246
C         32.17872        43.99982         1.49117
C         35.26001        27.36244        -1.23048
C         34.99327        28.27778        -0.17676
C         34.02046        29.23382         0.18537
C         35.71966        30.94446         0.99799
C         34.42119        30.41168         0.95272
C         35.68985        33.26122         1.15071
C         34.31307        33.70313         0.99852
C         35.28204        35.91542         0.13304
C         34.06432        35.13590         0.61468
C         35.32655        37.38985         0.29057
C         34.01993        38.08289         0.43556
C         35.27173        40.33878         0.52840
C         33.97287        39.56864         0.27701
C         35.23594        41.78552         0.01615
C         34.10931        42.51496         0.23431
C         35.31472        44.66237        -0.33060
C         33.97779        44.00431        -0.15888
C         35.46381        46.02706        -0.85903
C         37.73418        27.48431        -1.74404
C         36.42738        26.98399        -1.55452
C         37.88307        28.75498        -1.15059
C         36.96677        29.27739        -0.19278
C         38.00538        31.54339        -0.00942
C         36.85807        30.61061         0.21107
C         37.99587        33.04687         0.21292
C         36.74484        33.81134         0.48180
C         37.81971        35.94973        -0.37022
C         36.56574        35.15965        -0.12676
C         37.78736        37.45709        -0.21524
C         36.50844        38.15889         0.11529
C         37.80889        40.35628         0.27996
C         36.51855        39.56696         0.14882
C         37.79533        41.72631        -0.39146
C         36.43636        42.32832        -0.76862
C         37.69990        44.48061        -1.45368
C         36.52434        43.84980        -0.71418
C         37.73758        45.98316        -1.71590
C         36.50348        46.59547        -1.20373
C         40.07266        24.70544        -1.74241
C         39.10643        25.38312        -2.09306
C         40.29528        27.44247        -1.92120
C         38.91134        26.83739        -2.44371
C         40.34123        28.93551        -1.74385
C         39.03691        29.63434        -1.47992
C         40.36572        31.72325        -0.88812
C         38.99059        31.12060        -1.10612
C         40.35033        33.15276        -0.63114
C         39.14873        33.82064        -0.33361
C         40.30383        35.99286        -0.40385
C         39.11529        35.23989        -0.32088
C         40.25971        37.41990        -0.20906
C         39.08307        38.13177         0.01019
C         40.26188        40.28651        -0.06795
C         39.08653        39.58214         0.04140
C         40.25724        41.57608        -0.85437
C         38.96108        42.37136        -0.68363
C         40.31255        44.49740        -1.41574
C         39.00028        43.72621        -1.33176
C         40.38900        45.98043        -1.92374
C         39.01327        46.70659        -1.65924
C         40.24183        48.84512        -1.35532
C         39.24576        48.01447        -1.50462
C         42.65697        24.60918        -1.20304
C         41.26658        25.12474        -0.94847
C         42.63181        27.37555        -0.69987
C         41.43111        26.65383        -1.34127
C         42.71007        28.87361        -0.94588
C         41.59095        29.59920        -1.29693
C         42.88031        31.74496        -1.05019
C         41.54460        31.04005        -1.07587
C         42.81084        33.17579        -0.58917
C         41.57996        33.88399        -0.62117
C         42.80100        35.96679        -0.24400
C         41.56383        35.29669        -0.45339
C         42.84354        37.44178        -0.29592
C         41.53715        38.16450        -0.28389
C         42.83470        40.28863         0.06233
C         41.53240        39.55937         0.28210
C         42.83592        41.72318        -0.25698
C         41.57807        42.37665        -0.75546
C         42.70876        44.65449        -0.33898
C         41.47680        43.88026        -0.67153
C         42.77027        46.12069        -0.70152
C         41.62725        46.79132        -1.42836
C         42.75362        48.83584        -0.83157
C         41.50611        48.33080        -1.29000
C         43.69382        25.26654        -1.06300
C         45.10600        27.33564        -0.38093
C         43.99402        26.73044        -1.18943
C         45.10863        28.75030        -0.13655
C         43.93604        29.53514        -0.49114
C         45.09359        31.59907         0.19804
C         43.96982        30.92556        -0.38294
C         45.10236        33.02718         0.32025
C         43.96379        33.82283        -0.12844
C         45.08821        35.92937         0.72563
C         43.95297        35.23641         0.05235
C         45.12253        37.42013         0.85348
C         44.16026        38.16935        -0.04329
C         45.27125        40.36397         0.53073
C         44.02112        39.64304         0.28493
C         45.22859        41.83366         0.43964
C         44.04918        42.47953         0.09654
C         45.14850        44.67585         0.44527
C         44.07018        43.93632        -0.35022
C         45.13406        46.19598         0.05158
C         43.81583        46.90999         0.15527
C         43.79379        48.32056        -0.39137
C         47.28088        27.31754         0.58872
C         46.29616        26.73891         0.04600
C         47.45570        28.69499         0.79965
C         46.26277        29.41401         0.40138
C         47.33053        31.50009         1.24007
C         46.23933        30.84253         0.59329
C         47.12695        32.82963         1.60572
C         46.13622        33.65299         1.03504
C         47.64545        35.90248         0.92453
C         46.34780        35.13361         0.85867
C         47.65351        37.40729         0.86432
C         46.40137        38.18134         1.27311
C         47.72123        40.35324         1.08173
C         46.41845        39.66022         0.84623
C         47.75855        41.89970         0.89798
C         46.48246        42.58938         0.53116
C         47.70079        44.65529        -0.12059
C         46.48188        43.95277         0.26759
C         47.55581        46.00304        -0.46124
C         46.36642        46.52055        -0.34201
C         49.83672        28.85965         1.67232
C         48.62468        29.35552         1.29507
C         49.92442        31.58601         1.91103
C         48.73554        30.90882         1.12648
C         50.11922        33.07714         1.52546
C         49.07991        33.90860         1.79986
C         50.20555        35.95912         0.90889
C         48.95875        35.32489         1.41313
C         50.07110        37.27937         0.13310
C         48.82543        38.05985         0.59542
C         50.19909        39.94251         1.17575
C         48.93407        39.48789         0.88782
C         50.27980        42.19049         0.97089
C         49.01081        42.68066         0.60715
C         50.24061        44.39220        -0.39241
C         48.94434        43.94000        -0.06887
C         51.03456        29.35395         1.74169
C         52.35273        31.53953         1.30335
C         51.28740        30.69323         1.64848
C         52.41585        32.74026         0.94928
C         51.35163        33.70390         0.98860
C         52.45646        35.86275         0.15612
C         51.39985        35.05632         0.69865
C         52.45937        37.10991         0.03199
C         51.41500        38.05321         0.24041
C         52.47098        40.35303         0.70325
C         51.45078        39.33340         0.73953
C         52.50911        41.57965         0.51056
C         51.54008        42.63738         0.45356
C         51.36964        43.83025        -0.28438
O         42.84183        46.37787        -2.12062
O         49.78264        36.16445         2.29478
O         47.20142        35.32022        -0.34710
O         42.52540        41.93737        -1.78125
O         37.48741        45.03174        -2.78448
O         47.70631        41.27207         2.21893
O         39.84700        43.67521        -2.51881
O         32.75525        37.84838         2.57052
O         44.57700        36.63101         1.94133
O         41.37243        26.92612        -2.76593
O         36.33729        44.35118         0.64837
O         37.73287        36.81871        -1.53879
O         33.73811        38.74103        -0.87949
O         39.58386        29.55191        -2.83689
O         32.89916        35.38079        -0.25779
O         42.23949        37.96993        -1.54317
O         35.61448        35.34714        -1.20922
O         32.22376        41.17031        -0.46460
O         47.98672        33.42856         2.52334
O         41.72478        44.35567         0.69438
O         38.52682        32.10230         1.22661
O         50.32964        41.13682         1.88879
O         35.90076        32.06110         1.85001
O         36.19020        28.40215         0.59890
O         38.84170        27.04642        -3.82713
H         39.70953        26.80218        -4.21572
O         33.27522        44.12095        -1.37282
H         32.45246        43.58994        -1.32724
O         44.85664        38.19169        -1.32365
H         44.17964        38.38214        -2.01370
O         43.34509        46.90118         1.49001
H         44.02802        47.27666         2.08159
O         32.22123        32.91772         0.21647
H         32.25312        33.81674        -0.22231
O         43.30835        31.82986        -2.45785
H         43.27926        30.92361        -2.83356
O         44.17500        27.07646        -2.55752
H         45.00185        26.66528        -2.88296
O         37.90563        40.68959         1.73287
H         38.19163        39.87682         2.20378
O         40.16312        41.09010        -2.21973
H         41.06750        41.12624        -2.61320
O         35.25943        40.44922         1.98833
H         36.13735        40.82592         2.25125
O         42.56040        27.24764         0.72661
H         42.24084        26.34273         0.95495
O         33.14797        34.01538         3.39948
H         33.31979        33.06571         3.64853
O         46.41290        38.24590         2.71852
H         45.74733        37.59953         3.05322
O         36.21111        41.97517        -2.15046
H         36.21704        40.99907        -2.24184
O         49.08629        31.09573        -0.26120
H         48.38867        30.70408        -0.82760
O         38.43561        31.78377        -2.27739
H         38.88925        31.40941        -3.06734
O         41.46341        39.34474         1.73750
H         41.46915        40.22005         2.18001
O         44.80196        44.59312         1.83204
H         45.60895        44.70116         2.37625
O         33.72666        31.48508         3.01710
H         34.71313        31.53513         3.07854
O         40.52925        45.94113        -3.33354
H         39.96264        45.21245        -3.67919
O         49.87641        36.92078        -1.24530
H         49.76433        37.73260        -1.78063
O         44.49156        43.92281        -1.72747
H         43.88979        43.31490        -2.22021
O         40.97471        25.04103         0.43189
H         40.87493        24.09908         0.68282
O         49.63680        31.47758         3.28979
H         50.26751        32.02022         3.80511
