         261
 CSIRO Nanostructure Databank - Neutral Graphene Oxide Data Set
C        -11.18263         0.72610         0.80161
C        -10.18953         1.77702         1.08012
C         -8.29954         0.69473         0.85993
C         -7.56829         1.45539        -0.16359
C         -6.35061         0.65510        -0.64375
C         -5.04388         1.35897        -0.55174
C         -3.75096         0.62831        -0.70909
C         -2.59812         1.42643        -1.27951
C         -1.36506         0.67030        -1.75176
C         -0.04219         1.42097        -1.88221
C          1.24251         0.64426        -1.66384
C          2.48794         1.40133        -1.25031
C          3.77490         0.63609        -1.14639
C          5.07421         1.39040        -1.27375
C          6.38628         0.67538        -1.47260
C          7.66699         1.43907        -1.26757
C          8.95099         0.73430        -1.00036
C          9.98826         1.68071        -0.35517
C          9.37476         1.90185         1.03606
C        -10.07297         3.05737         0.60816
C         -8.72469         3.72687         0.62809
C         -7.72039         2.99386        -0.29856
C         -6.34682         3.63039        -0.59534
C         -5.03587         2.87560        -0.37945
C         -3.72958         3.62750        -0.45099
C         -2.61456         2.93573        -1.23218
C         -1.40749         3.74456        -1.78967
C         -0.03997         2.96443        -1.82899
C          1.28626         3.68616        -1.67983
C          2.62368         2.88626        -1.65759
C          3.75012         3.58070        -0.89998
C          5.05695         2.80561        -0.75803
C          6.34396         3.53809        -0.54123
C          7.68994         2.81239        -0.60082
C          8.82481         3.64506        -1.11960
C         10.01921         3.02819        -1.04957
C         -8.58924         5.03970         0.99465
C         -7.36615         5.86032         1.01757
C         -6.05513         5.15870         1.23413
C         -4.78089         5.80068         0.62345
C         -3.68261         5.12192        -0.17633
C         -2.53027         5.92288        -0.70235
C         -1.31335         5.21122        -1.22467
C          0.02270         5.72329        -0.72098
C          1.29014         5.17918        -1.33881
C          2.57093         5.91761        -1.10720
C          3.79929         5.07186        -0.84853
C          5.11324         5.83527        -1.03095
C          6.41643         5.01368        -0.93403
C          7.64272         5.71756        -0.41111
C          8.45153         5.04276        -1.50239
C         -7.36488         7.22671         1.05862
C         -6.09149         7.98929         1.17701
C         -4.82873         7.30553         0.73102
C         -3.64393         8.10525         0.26244
C         -2.41827         7.31962        -0.11063
C         -1.16069         7.66963         0.67558
C          0.10579         6.88088         0.25758
C          1.46761         7.49484         0.61039
C          2.58824         7.31568        -0.42880
C          3.80900         7.46718         0.52732
C          5.13691         7.06827        -0.09213
C          6.40316         7.60278         0.51523
C          7.68450         6.91829         0.18999
C         -6.00925         9.47386         1.30263
C         -4.81612        10.09825         1.36543
C         -3.53487         9.56684         0.74769
C         -2.17492         9.87397         1.33619
C         -1.04089         9.14352         1.01779
C          0.27555         9.64398         1.31372
C          1.42872         8.94131         1.06942
C          2.70718         9.49269         1.44434
C          3.87622         8.81580         1.21475
C          5.11782         9.20660         1.85505
C          6.29085         8.56406         1.63207
C        -11.13682        -0.65273         0.81311
C        -10.10919        -1.65793         1.16792
C         -8.22684        -0.63598         1.04699
C         -7.43498        -1.54957         0.22363
C         -6.31253        -0.85612        -0.50415
C         -5.02848        -1.60835        -0.73670
C         -3.72866        -0.86531        -0.80719
C         -2.47070        -1.59824        -1.08261
C         -1.32868        -0.83525        -1.69723
C         -0.02184        -1.58717        -1.80848
C          1.22774        -0.86357        -1.29161
C          2.52768        -1.56654        -1.76318
C          3.80859        -0.79544        -1.61251
C          5.12435        -1.54782        -1.49728
C          6.45574        -0.85231        -1.46509
C          7.79413        -1.61170        -1.07132
C          8.82196        -0.65616        -0.43873
C          9.04126        -0.66570         1.11304
C          9.21472         0.60560         1.76466
C         -9.93546        -2.89620         0.61202
C         -8.69876        -3.79438         0.87028
C         -7.35543        -2.96032         0.73125
C         -6.04826        -3.65740         0.51412
C         -4.94720        -3.03716        -0.31254
C         -3.59597        -3.75781        -0.26775
C         -2.56775        -3.09246        -1.20999
C         -1.33499        -3.86803        -1.55727
C         -0.04111        -3.09646        -1.80175
C          1.26713        -3.83747        -1.57902
C          2.56883        -3.09061        -1.69513
C          3.86451        -3.75043        -1.22621
C          4.98912        -2.86152        -0.79879
C          6.13019        -3.39408        -0.01929
C          7.56190        -2.93290        -0.20429
C          8.15410        -2.99313         1.20318
C          8.65100        -1.87059         1.84161
C         -8.60770        -4.93286        -0.19706
C         -8.06560        -6.13999        -0.05823
C         -5.91829        -5.13796         0.73152
C         -5.09999        -5.88129        -0.27609
C         -3.82665        -5.20410        -0.70239
C         -2.56258        -6.02890        -0.73386
C         -1.28929        -5.30601        -1.06175
C         -0.04358        -5.78388        -0.38801
C          1.26312        -5.06834        -0.71572
C          2.54509        -5.75215        -0.38540
C          3.88750        -5.17782        -0.77546
C          4.96054        -5.60372         0.20345
C          6.28368        -4.88322         0.22158
C          7.10875        -5.24010         1.44562
C          7.99857        -4.22337         1.89347
C         -7.75378        -7.43481         0.00774
C         -6.41144        -8.11696        -0.07308
C         -5.11807        -7.38181        -0.19757
C         -3.87363        -7.91500         0.46725
C         -2.58848        -7.17599         0.25863
C         -1.31098        -7.90956         0.67928
C         -0.05198        -7.14226         0.26438
C          1.20840        -7.94456         0.16623
C          2.49394        -7.22595        -0.07987
C          3.77052        -7.84921         0.40033
C          4.79249        -6.89081         0.95327
C          5.82642        -7.40414         1.95465
C          7.03708        -6.49539         2.02567
C         -6.27431        -9.51499         0.43742
C         -5.10032       -10.09043         0.75994
C         -3.78928        -9.35846         0.97814
C         -2.51843       -10.06118         0.47238
C         -1.31156        -9.40926         0.41117
C          0.00034       -10.05786         0.51949
C          1.18705        -9.38087         0.57177
C          2.50746       -10.13616         0.77683
C          3.79590        -9.28654         0.78814
C          5.00057        -9.73683         1.55316
C          6.00271        -8.90805         1.90090
O         -2.14087         6.03240        -2.09640
O          1.98083         6.73515         1.77626
O          0.04727        -2.33236        -3.03697
O          3.00620         0.97905         0.05312
O          5.93999        -1.46962        -2.68758
O          8.60312         1.11246        -2.34993
O         -5.23799        -2.68101        -1.69554
O         -2.39114        -3.63962        -2.52877
O         -6.01033         4.19294         1.96998
O          5.64980         1.23676        -2.60034
O          2.03495        -3.85219        -2.81075
O          4.27395        -4.85477        -2.11438
O          0.68285         3.48895        -2.98669
O         -1.68437        -0.13849        -2.92072
O         -1.88345        -6.28004        -1.98705
O         -3.42046        -6.90630         1.41945
O          5.58423         3.05056         0.58315
O          0.77099         0.93771        -2.99075
O         -8.41987         3.17672        -1.56473
O          4.28023        -5.63823         1.50344
O         -9.04790         1.39314         1.81263
O         -7.46203        -1.42124        -1.21861
O         -4.91520        -5.36507        -1.62596
O         -3.18310         2.21016        -2.36474
O         -9.06694        -1.21094         2.02410
O          8.10933        -4.06474        -0.98450
O          1.95488        -4.81919         0.56084
O          1.93876         5.94012        -2.40831
O          3.49609         4.27910         0.34068
O          0.04923         5.50300         0.72693
O         -6.37967        -3.01756         1.79703
O          7.15877         4.93179        -2.25238
O         -5.11541         7.48941         2.16531
O         -4.29809         0.83835         0.61693
O          7.11628        -5.19035        -0.95024
O         -4.20012         3.08116         0.79197
O         -1.43479         7.35786         2.02532
O         -2.77599        -1.25238         0.29785
O          4.27619        -8.84183        -0.53974
O         -1.26039        -8.04408         2.08322
O          1.82956        -7.90425        -1.18663
O         -7.41607         0.98470        -1.54619
O         -3.58147         5.32616         1.28216
O          5.80596         8.18631        -0.72634
O          8.02627         2.49836         0.83839
O         -5.66578        -8.02868        -1.36536
O          3.16374        -0.97056        -2.91194
O          3.43370         6.52242         1.58173
O          5.12932        -2.63837         0.67322
O         -3.14009         8.12397        -1.11371
O         -0.08133        -5.92423         1.06151
O         10.02261        -1.16867         0.04853
O         -6.27263        -5.65968         1.78121
O         11.27977         1.11224        -0.22634
H         11.55241         0.72672        -1.08356
O         -3.43555        10.44726        -0.42478
H         -3.08359         9.89269        -1.16681
O          3.11721         2.85158        -3.00536
H          2.35011         2.69226        -3.60610
O         -3.60955        -9.33842         2.40970
H         -2.82553        -8.74063         2.58073
O         -1.75578         3.90618        -3.16551
H         -0.98802         4.29279        -3.64018
O          2.51418         8.33015        -1.41286
H          3.09552         8.08335        -2.16392
O         -3.06089        -3.80263         1.05418
H         -2.93356        -2.88080         1.37870
O          4.99774         6.34096        -2.37236
H          5.88679         6.30380        -2.79353
O          2.43508       -10.87845         1.99858
H          2.07404       -10.30393         2.70461
O         -6.31601         4.65049        -1.27592
H         -8.13058         4.04025        -1.93778
O          1.14274        -0.98238         0.13911
H          1.82601        -0.39708         0.55152
O          5.23554        -7.19963         3.27941
H          4.82084        -6.30551         3.27254
O          8.40865        -1.99072        -2.29549
H          7.70431        -2.24920        -2.93365
O         -8.76931        -4.32271         2.17677
H         -7.89882        -4.73755         2.39154
H          8.84669         0.66307         2.80033
H          9.97121         2.62706         1.64679
H         10.97191         3.49509        -1.33369
H          9.22905         5.62559        -2.04300
H          8.63006         7.46772         0.31610
H          7.19615         8.82531         2.19782
H          5.06731        10.00801         2.60725
H          2.72600        10.45911         1.97072
H          0.35303        10.65418         1.74562
H         -2.02989        10.90861         1.69046
H         -4.79494        11.17387         1.59986
H         -6.92406        10.01452         1.59086
H         -8.30676         7.79342         0.98897
H         -9.49271         5.54219         1.38017
H        -10.90444         3.56954         0.09783
H        -12.11912         1.13376         0.38169
H        -12.04683        -1.12179         0.39809
H        -10.69812        -3.28130        -0.08253
H         -8.90439        -4.62938        -1.22030
H         -8.59014        -8.12684         0.22888
H         -7.18625       -10.13433         0.43789
H         -5.10492       -11.14766         1.06923
H         -2.53792       -11.16117         0.39582
H          0.00748       -11.14824         0.67876
H          2.61213       -10.89044        -0.04705
H          5.12474       -10.82301         1.68099
H          6.90246        -9.32047         2.38181
H          7.73639        -6.71363         2.84953
H          8.52824        -4.36094         2.84774
H          8.84769        -1.90708         2.92324
