         621
 CSIRO Nanostructure Databank - Neutral Graphene Oxide Data Set
C          5.93002        31.72123         1.08273
C          5.90452        33.08474         1.15182
C          8.45314        27.45825         0.55581
C          8.38431        28.88551         0.50114
C          7.18311        29.59501         0.76813
C          8.31186        31.75366         0.43584
C          7.13735        30.99784         0.75471
C          8.30449        33.18459         0.58005
C          7.09386        33.87527         0.93952
C          8.28250        36.03959         0.92694
C          7.08969        35.27065         1.05878
C          8.30615        37.45440         0.96857
C         10.76171        23.16371         0.25803
C         10.83273        24.55210        -0.03493
C          9.68280        25.31733         0.32479
C         10.89780        27.43261         0.06830
C          9.62616        26.72004         0.30636
C         10.82053        28.92975        -0.05634
C          9.53781        29.64673         0.12935
C         10.67834        31.82879        -0.35919
C          9.49461        31.04556         0.06559
C         10.70420        33.30115        -0.08783
C          9.49272        33.94280         0.45718
C         10.76128        36.04092         0.68915
C          9.51304        35.33253         0.69149
C         10.76744        37.46223         0.80453
C          9.51353        38.18500         0.85229
C         10.74562        40.33751         0.67607
C          9.54392        39.60477         0.78325
C         10.76966        41.74921         0.50939
C         13.34803        18.91805        -0.11721
C         13.27298        20.30555        -0.35818
C         12.09625        20.97402         0.16094
C         13.32468        23.19852        -1.17542
C         11.63126        22.19510        -0.30619
C         13.25805        24.59085        -0.88175
C         12.04319        25.24752        -0.50817
C         13.25715        27.39295        -0.72143
C         12.07916        26.67785        -0.43716
C         13.22733        28.86617        -0.87478
C         11.94601        29.62732        -0.73449
C         13.26072        31.80881        -0.35684
C         11.97387        31.12857        -0.66519
C         13.23314        33.22300         0.04037
C         12.00840        33.96287         0.11609
C         13.24243        35.96250         0.85847
C         11.98123        35.30043         0.54117
C         13.24973        37.50034         0.97407
C         11.97990        38.20188         0.78994
C         13.24684        40.30635         0.64952
C         12.00797        39.61422         0.70619
C         13.26302        41.80311         0.85836
C         11.97104        42.49070         0.46763
C         13.21475        44.62481         0.14718
C         11.99712        43.87271         0.24894
C         13.18984        46.02551         0.03355
C         15.78324        14.58086         0.03042
C         15.73155        16.01567        -0.14097
C         14.53758        16.74714        -0.11420
C         15.68877        18.86432        -0.78519
C         14.51403        18.16298        -0.34474
C         15.64370        20.24417        -1.07478
C         14.43445        20.98074        -0.92096
C         15.74107        23.13816        -1.21858
C         14.48278        22.41815        -1.10379
C         15.70043        24.58098        -1.22017
C         14.51297        25.29591        -0.97781
C         15.73626        27.46553        -0.96882
C         14.51278        26.73704        -0.91848
C         15.77290        28.88689        -0.69932
C         14.50419        29.65629        -0.73404
C         15.69750        31.65935         0.20194
C         14.43103        31.07225        -0.30201
C         15.70979        33.12944         0.63157
C         14.45025        33.89045         0.29886
C         15.71556        36.01077         0.57548
C         14.49717        35.28069         0.55310
C         15.70991        37.44324         0.60345
C         14.50672        38.18970         0.69099
C         15.71388        40.32237         0.30054
C         14.47625        39.60529         0.55756
C         15.66918        41.75191         0.12057
C         14.49384        42.48801         0.31017
C         15.68941        44.61749        -0.12049
C         14.47379        43.89879         0.11545
C         15.63836        46.07651        -0.35140
C         14.37269        46.82157        -0.11577
C         15.63326        49.00643        -0.07583
C         14.37869        48.20458        -0.15233
C         15.62783        50.49162        -0.42869
C         18.20325        10.25913         0.62691
C         18.15477        11.57262         0.14418
C         16.97648        12.38612         0.22001
C         18.05493        14.19955        -1.05127
C         16.89505        13.73625        -0.20680
C         18.16816        16.22104         0.08845
C         16.94898        16.77849        -0.35637
C         18.15231        18.85227        -0.93556
C         16.94288        18.13975        -0.80677
C         18.19192        20.26731        -1.17655
C         16.89013        20.92451        -1.63881
C         18.18277        23.11963        -1.74597
C         16.91940        22.42856        -1.44179
C         18.23192        24.61993        -1.73521
C         16.92636        25.34896        -1.51184
C         18.21700        27.44057        -1.17259
C         16.98225        26.78176        -1.16155
C         18.22198        28.94952        -1.23204
C         16.96034        29.56983        -0.68988
C         18.23140        31.71375        -0.28376
C         16.98252        30.94178        -0.14334
C         18.12835        33.18579        -0.25907
C         16.94005        33.89831         0.20469
C         18.20116        36.03586         0.35983
C         16.95344        35.28804         0.33137
C         18.17374        37.47306         0.41308
C         16.94034        38.17419         0.41115
C         18.18910        40.19778        -0.35153
C         16.91244        39.59195         0.21450
C         18.17195        41.73068        -0.45512
C         16.89004        42.48087        -0.28777
C         18.18063        44.66639        -0.23048
C         16.91955        43.95805        -0.18469
C         18.20257        46.08585        -0.20662
C         16.94125        46.82362        -0.40170
C         18.21197        49.00945        -0.42775
C         16.94338        48.29511        -0.13284
C         18.24123        50.42457        -0.58185
C         17.00327        51.16142        -0.44658
C         18.32035        53.24429        -0.36852
C         17.07233        52.52748        -0.32451
C         18.34282        54.59411         0.04368
C         20.77365         6.07829         1.87216
C         20.69732         7.28304         0.96668
C         19.42915         8.12846         1.05756
C         20.66960        10.10652         0.22981
C         19.40274         9.44715         0.65746
C         20.69886        11.54364         0.11199
C         19.44201        12.20475        -0.26041
C         20.68555        14.44860        -0.28042
C         19.45503        13.64797        -0.65719
C         20.71705        15.94425        -0.30720
C         19.40948        16.63273        -0.55081
C         20.69327        18.78086        -0.74859
C         19.40384        18.09540        -1.00539
C         20.67398        20.27980        -0.81644
C         19.40103        20.94265        -1.18610
C         20.72501        23.11978        -1.31093
C         19.48274        22.36240        -1.58582
C         20.69006        24.54364        -1.29265
C         19.50459        25.30962        -1.42894
C         20.67777        27.47934        -0.99365
C         19.48014        26.74096        -1.24563
C         20.67428        28.88009        -0.69325
C         19.46845        29.60894        -0.70610
C         20.72405        31.73484        -0.43022
C         19.42557        31.02664        -0.50223
C         20.72905        33.20934        -0.16819
C         19.45489        33.98955        -0.17191
C         20.71198        36.01121         0.61029
C         19.41030        35.32753         0.39347
C         20.70077        37.50458         0.62821
C         19.40630        38.23105         0.48856
C         20.67176        40.37264         0.56257
C         19.41018        39.58894         0.29553
C         20.71162        41.76794        -0.01744
C         19.46316        42.50169        -0.35717
C         20.61497        44.70242         0.07078
C         19.42914        43.97855        -0.16891
C         20.63787        46.11848         0.03939
C         19.40657        46.81287        -0.12357
C         20.62468        48.94629        -0.39296
C         19.39536        48.25968        -0.30727
C         20.66362        50.28271        -0.80841
C         19.48506        51.11199        -0.81656
C         20.70525        53.40605        -0.86104
C         19.52439        52.57170        -0.76845
C         20.74351        54.69041        -0.29795
C         19.55192        55.31074         0.18007
C         20.80636        57.36082         0.81629
C         19.60986        56.63245         0.73248
C         20.92458        58.55901         1.52420
C         23.26376         3.42028         2.50335
C         22.06215         4.10411         2.55801
C         23.26619         6.18289         2.00912
C         22.01006         5.48652         2.18411
C         23.15379         7.64344         1.86770
C         21.88980         8.18092         1.26441
C         23.27610        10.19959         0.45518
C         22.00142         9.43480         0.47896
C         23.27205        11.50730         0.03136
C         21.97975        12.22532         0.02505
C         23.23202        14.33529        -0.71803
C         21.99610        13.70232        -0.16610
C         23.19581        15.83355        -0.95310
C         21.97492        16.64510        -0.67225
C         23.17760        18.79332        -0.88685
C         21.96693        18.02310        -0.84476
C         23.18898        20.20493        -0.89018
C         21.96503        20.97815        -1.00388
C         23.22245        23.10678        -1.04900
C         21.93872        22.37244        -1.14657
C         23.13129        24.52166        -0.58274
C         21.97175        25.28024        -1.15385
C         23.18405        27.43208        -0.44850
C         21.97317        26.77634        -0.99860
C         23.16299        28.83627        -0.26844
C         21.92684        29.55514        -0.37446
C         23.15314        31.61350         0.15998
C         21.94416        30.94127        -0.13776
C         23.13733        32.97558         0.72257
C         21.84989        33.75497         0.64005
C         23.08073        35.63886         1.48828
C         21.89654        35.17931         0.95258
C         23.08644        37.81562         1.38290
C         21.92577        38.30706         0.86535
C         23.21259        40.36388         0.23261
C         21.91399        39.57251         0.06385
C         23.23264        41.85406         0.31002
C         21.91480        42.54288         0.44254
C         23.17138        44.77801         0.54700
C         21.86788        44.02166         0.48826
C         23.14140        46.19910         0.15233
C         21.90604        46.82750         0.09382
C         23.18569        49.04358         0.02862
C         21.86991        48.29073         0.04248
C         23.17969        50.34118        -0.68572
C         21.97844        50.76553        -1.17874
C         23.20919        53.42487        -1.05323
C         21.97966        52.92531        -1.37100
C         23.23921        54.92555        -0.90336
C         22.07372        55.36206        -0.01044
C         23.35116        57.46195         0.43849
C         22.00664        56.92277        -0.04160
C         23.37147        58.71468         1.09626
C         22.15035        59.28980         1.60446
C         23.42896        61.19045         2.45440
C         22.20920        60.52217         2.28227
C         24.44106         4.06514         2.08749
C         25.74401         6.02580         1.35100
C         24.48075         5.45859         1.86028
C         26.16503         7.30906         1.57254
C         24.35748         8.48639         1.75374
C         25.78583        10.23301         0.64678
C         24.50003         9.58756         0.93721
C         25.76810        11.50432         0.08759
C         24.51926        12.24762        -0.11713
C         25.78701        14.33924        -0.77774
C         24.50297        13.58706        -0.49764
C         25.67589        15.82151        -0.43324
C         24.52042        16.59450        -1.09054
C         25.74356        18.76660        -0.56714
C         24.42094        18.03877        -0.61600
C         25.69032        20.22735        -0.76462
C         24.47019        20.88190        -0.80077
C         25.59778        23.03159        -0.05544
C         24.48984        22.36544        -0.82013
C         25.64204        24.50634         0.03617
C         24.35423        25.23873        -0.11311
C         25.57546        27.39255         0.09662
C         24.37733        26.71933        -0.18780
C         25.62090        28.81823         0.09464
C         24.38552        29.52841        -0.02503
C         25.61930        31.67454         0.24869
C         24.39087        30.93837         0.13049
C         25.58887        33.06920         0.46590
C         24.39776        33.73415         0.82629
C         25.56136        35.96149         1.01390
C         24.38931        35.11279         1.16008
C         25.53793        37.42134         0.91271
C         24.40444        38.22411         0.96839
C         25.70169        40.44336         0.74383
C         24.43097        39.69108         0.77223
C         25.69819        41.89624         0.46854
C         24.50340        42.57626         0.56937
C         25.73728        44.71189         0.18253
C         24.49339        44.04359         0.58222
C         25.64602        46.10539        -0.38029
C         24.40785        46.90077         0.00959
C         25.73167        49.04896        -0.01102
C         24.43919        48.26831        -0.06656
C         25.71514        50.42846        -0.64183
C         24.42432        51.21042        -0.54013
C         25.75336        53.33434        -1.05812
C         24.44784        52.60027        -1.20851
C         25.74540        54.78553        -0.69834
C         24.57150        55.48974        -0.48234
C         25.80599        57.50166         0.31320
C         24.56378        56.83298         0.07815
C         25.82003        58.75538         0.89968
C         24.61408        59.37732         1.33254
C         24.61699        60.62881         2.00080
C         27.20236         8.12828         0.98426
C         28.29097        10.24520         0.55872
C         27.06751         9.49825         0.76341
C         28.31274        11.57135         0.19584
C         27.04808        12.18270        -0.34658
C         28.26437        14.44075        -0.16624
C         26.95943        13.67738        -0.00271
C         28.24135        15.80282        -0.22190
C         26.96123        16.55759        -0.19323
C         28.13913        18.39644        -1.26771
C         26.99914        17.96854        -0.65659
C         28.11567        20.58029        -1.20544
C         26.93444        20.98706        -0.66500
C         28.17862        22.97753         0.31544
C         26.88714        22.26402         0.06829
C         28.10551        24.47316         0.55469
C         26.79993        25.15999         0.34520
C         28.11600        27.34903         0.39791
C         26.79309        26.63518         0.45765
C         28.11387        28.79904         0.05979
C         26.84106        29.53518         0.20038
C         28.09355        31.66709         0.33321
C         26.87689        30.96585         0.20879
C         28.14766        33.12627         0.28542
C         26.79842        33.87816         0.35538
C         28.05654        35.95239         0.68735
C         26.80950        35.29518         0.74115
C         28.07212        37.38057         0.33246
C         26.77254        38.12392         0.38674
C         28.18226        40.34782         0.26349
C         26.88448        39.63133         0.36308
C         28.15891        41.81268         0.17196
C         26.95817        42.56064         0.28790
C         28.17544        44.68418        -0.18378
C         26.93260        43.99368         0.08421
C         28.18526        46.11678        -0.33927
C         26.95412        46.85850        -0.29160
C         28.19552        48.96610        -0.45059
C         26.96534        48.24456        -0.33849
C         28.18552        50.38345        -0.55291
C         26.93837        51.11581        -0.68945
C         28.20266        53.23113        -0.58925
C         26.97789        52.54939        -0.76768
C         28.18907        54.67429        -0.44769
C         27.03000        55.40439        -0.42475
C         27.09682        56.89962        -0.19443
C         29.51995        12.35026         0.15423
C         30.76210        14.49035        -0.07947
C         29.53223        13.72518        -0.05273
C         30.78078        15.86759        -0.16040
C         29.49289        16.63790        -0.10621
C         30.73362        18.74565        -0.92178
C         29.49302        17.85601        -1.03090
C         30.74497        20.27690        -0.91762
C         29.44244        21.15770        -0.93719
C         30.65466        23.04484         0.12584
C         29.45477        22.41614        -0.19086
C         30.63679        24.46272         0.47652
C         29.37778        25.21892         0.40082
C         30.66848        27.31401         0.30996
C         29.37698        26.58046         0.28928
C         30.71878        28.80214         0.34425
C         29.41888        29.53573         0.16617
C         30.63274        31.66808         0.84803
C         29.34338        30.94639         0.61733
C         30.63513        33.14885         0.66159
C         29.34274        33.87245         0.70447
C         30.57009        36.03798         1.03207
C         29.31540        35.25809         0.71853
C         30.63402        37.47811         0.66983
C         29.36767        38.13731         0.25001
C         30.63249        40.25839        -0.12599
C         29.34319        39.61976         0.19315
C         30.63658        41.77281        -0.27266
C         29.37147        42.52091        -0.05667
C         30.66343        44.60851        -0.42075
C         29.37058        43.92503        -0.18499
C         30.69115        46.09969        -0.55392
C         29.41105        46.83337        -0.43935
C         30.69154        48.95798        -0.49429
C         29.42777        48.23900        -0.47284
C         30.65433        50.36738        -0.50006
C         29.43254        51.09166        -0.53717
C         29.41185        52.50930        -0.51107
C         31.96235        16.69397        -0.12981
C         33.15638        18.84188        -0.21382
C         31.94104        18.06766        -0.32523
C         33.16514        20.21612        -0.21240
C         31.91731        20.95056        -0.29592
C         33.09127        22.91035         0.72687
C         31.89107        22.29258         0.08515
C         33.06094        24.38703         0.98981
C         31.80591        25.12768         0.76565
C         33.02358        27.34778         1.34239
C         31.78048        26.59148         0.97951
C         33.16685        28.80870         0.97707
C         31.93911        29.53203         0.80155
C         33.14189        31.66349         0.77690
C         31.92097        30.93201         0.78019
C         33.17978        33.08964         0.87558
C         31.91942        33.87499         0.84315
C         33.19820        36.06470         1.45721
C         31.87491        35.31273         1.28199
C         33.09844        37.59014         1.16461
C         31.83142        38.15678         0.56849
C         33.09353        40.27131         0.19469
C         31.88510        39.56369         0.21427
C         33.10701        41.71937         0.05154
C         31.92480        42.44112        -0.05810
C         33.22632        44.67402         0.01136
C         31.90045        43.90379         0.05065
C         33.17466        46.11723        -0.30415
C         31.98004        46.83012        -0.38358
C         31.91938        48.24800        -0.43643
C         34.44482        21.03786        -0.29346
C         35.60705        23.19405         0.45668
C         34.46063        22.21413         0.70009
C         35.60534        24.53827         0.76859
C         34.32057        25.16956         1.12472
C         35.98184        27.60405         0.99604
C         34.20291        26.46749         1.53783
C         35.66803        28.84349         0.52054
C         34.38135        29.50616         0.75141
C         35.51419        31.67553         0.20789
C         34.34965        30.93624         0.57337
C         35.55407        33.07991         0.33821
C         34.36877        33.78744         0.70496
C         35.62640        35.99459         0.61681
C         34.48156        35.20930         1.20601
C         35.57899        37.41117         0.49097
C         34.37345        38.18590         0.61961
C         35.58249        40.26204         0.04345
C         34.35155        39.55091         0.31111
C         35.57216        41.67069        -0.10066
C         34.37849        42.44021        -0.02112
C         34.41288        43.83769        -0.14731
C         36.80480        25.33089         0.44264
C         38.11425        27.43408        -0.11665
C         36.97716        26.70804         0.42935
C         38.01657        28.78778        -0.37952
C         36.62894        29.43092        -0.49288
C         37.92903        31.72542        -0.58610
C         36.64547        30.96119        -0.41980
C         37.96234        33.15644        -0.21628
C         36.78487        33.82995         0.12766
C         38.00692        35.98016        -0.03845
C         36.79054        35.26932         0.25950
C         37.98794        37.38500        -0.07188
C         36.78966        38.11150         0.11458
C         36.77735        39.51933        -0.03565
C         39.19302        29.58220        -0.63559
C         40.40983        31.73824        -0.75835
C         39.19627        30.96184        -0.67716
C         40.40764        33.09924        -0.63941
C         39.20305        33.86030        -0.36552
C         39.20780        35.24972        -0.29003
O         21.95689        51.76543        -2.14245
O         31.05086        28.03770        -0.89281
O         32.90740        38.00806         2.55512
O         16.38835        30.86704         1.23741
O         25.94115        22.31195         1.16933
O         24.19711        22.94459        -2.14084
O         25.01998        40.23046         2.03521
O         23.86921        44.61795         1.82567
O         30.62585        40.89843        -1.45103
O         20.97347        36.77212        -0.65269
O         23.02284        14.87556        -2.06734
O         18.72980        33.84419        -1.41882
O         23.41946        41.15144        -0.98546
O         21.68136        43.20066         1.72314
O         25.21712        52.89180        -2.40012
O         10.41630        32.79035        -1.44462
O         11.28380        28.31563         1.20193
O         12.14436        22.57688        -1.56707
O         22.42451        48.94054         1.27040
O         27.24812        11.98908        -1.82778
O         19.33829        17.00707        -1.96217
O         20.40103        42.00054        -1.40824
O         22.10856         8.32196         2.69040
O         18.89777        22.58764        -2.93099
O         19.67614        12.64127        -1.69195
O         26.04462        16.19581         0.91443
O         16.25432        46.46154        -1.64580
O         13.26443        36.63932         2.15930
O         32.84095        23.39796         2.08964
O         24.99777        18.38836         0.65847
O         13.92614        29.35466        -2.06073
O         27.50361        33.67230        -0.90834
O         21.06006        32.71340        -1.49396
O         17.41042        42.10349        -1.65197
O         37.00466        31.51526        -1.73442
O         30.75853        45.21278        -1.74988
O         31.01070        35.63061         2.41785
O         23.32173        24.72657         0.84466
O         25.42014         8.04584         2.53112
O         32.46637        44.40984         1.28192
O         31.37359        33.64117        -0.52315
O         28.83330        29.25679        -1.13627
O         26.54188        38.86044        -0.85175
O         29.83182        31.20259         1.99664
O         34.73768        34.90410         2.61844
O         21.40729         9.35248        -0.85777
O         22.29919        26.11157        -2.30008
O         21.76548        57.41644        -1.30029
O         22.18328        32.98813         1.86166
O         16.37645        48.69582         1.16908
O         31.98472        27.06771         2.35727
O         28.77313        37.53240        -0.95860
O         28.09801        19.51836        -2.11441
O         20.60117        19.57078         0.48989
O         23.02423        36.76739         2.30022
O         17.90381        14.70052        -2.14779
O         27.44035        27.13035         1.68659
O         20.65212        15.23896         0.98402
O         11.71864        30.41049        -1.93109
O         30.39736        17.99823        -2.14798
O         22.14439        13.25527         1.20705
O         35.30342        27.10468         2.10973
O         28.21801        23.52533         1.66446
O         17.47704        25.14773        -2.87381
O         30.33085        21.01731        -2.09242
O         18.14541        15.51898         1.24105
H         19.07056        15.27934         1.51921
O         29.42151        17.26220         1.22195
H         29.28841        16.55341         1.88686
O         26.03687        14.32970        -2.20413
H         25.85887        13.42218        -2.54888
O         25.97659        11.57264        -2.42603
H         26.28214        10.94494        -3.12554
O         16.83829        20.72685        -3.08551
H         17.57618        21.26132        -3.46969
O         24.35618        51.58073         0.90343
H         23.48084        51.99495         1.07102
O         20.79686         6.77278        -0.39483
H         20.82464         7.56089        -0.99069
O         20.78058        40.49840         2.00620
H         21.01652        41.41884         2.26025
O         27.44295        57.54897        -1.43754
H         26.69223        57.43750        -2.05690
O         24.82717        16.72353        -2.49147
H         24.86045        15.81137        -2.86849
O         15.71575        33.14273         2.09554
H         16.14078        32.29955         2.38306
O         18.21184        29.27938        -2.67414
H         17.50871        28.74346        -3.10096
O         22.42585        54.98734         1.34282
H         21.67987        55.22181         1.93476
O         22.98271        55.43906        -2.23211
H         23.71730        55.15990        -2.81800
O         33.46409        36.25623         2.94884
H         32.67185        35.90873         3.44015
O         21.73998        39.25786        -1.31463
H         21.98869        40.04850        -1.84375
O         36.13294        29.07285        -1.80823
H         36.45402        29.76942        -2.42717
O         15.02212        50.65190        -1.72273
H         15.60534        50.24689        -2.39711
O         13.36376        41.97956         2.32062
H         12.58363        41.54033         2.72198
O         25.43385        45.87689        -1.83043
H         26.24092        45.44593        -2.18702
O         25.87834        49.34432         1.42803
H         25.21725        50.04730         1.64627
O         18.23494        39.69716        -1.72251
H         17.78441        40.36907        -2.28643
O         34.68564        21.62084         1.99749
H         34.28861        22.23476         2.65972
O         26.64582        13.67573         1.40666
H         26.43755        14.60766         1.66936
O         34.52561        21.59153        -1.61145
H         34.38817        20.87663        -2.26601
H          5.01599        31.14338         1.28474
H          4.96908        33.60511         1.40549
H          7.52899        26.90528         0.78459
H          6.27485        29.03068         1.02825
H          6.14262        35.78827         1.27441
H          7.35717        38.00275         1.07005
H          9.98212        22.83447         0.96278
H          8.77518        24.76378         0.61146
H          8.58944        40.15327         0.79361
H          9.81479        42.27964         0.36877
H         12.46038        18.40894         0.28758
H         11.58305        20.49396         1.00816
H         11.04412        44.40962         0.11924
H         12.21920        46.54108         0.09797
H         14.87239        14.10387         0.43115
H         13.58317        16.23427         0.08013
H         13.42430        48.75101        -0.10097
H         14.97038        51.04017         0.29379
H         17.27008         9.79658         0.98405
H         16.09042        11.94059         0.70149
H         16.15328        53.10466        -0.14119
H         17.39816        55.06969         0.34732
H         19.85566         5.49385         2.04186
H         18.49253         7.63878         1.36700
H         18.66661        57.10908         1.04383
H         20.08525        58.88875         2.15990
H         23.29320         2.34698         2.73751
H         21.12713         3.57412         2.78812
H         23.44625        62.15833         2.97452
H         21.28295        60.96656         2.67455
H         25.36620         3.48148         1.98023
H         26.35262         5.36293         0.71739
H         26.77640        59.27744         1.05215
H         25.57255        61.14553         2.17141
H         28.18717         7.67305         0.78939
H         29.23667         9.74497         0.82089
H         29.14999        55.18196        -0.27477
H         27.92924        57.12931         0.51870
H         30.47271        11.83208         0.34720
H         31.71343        13.93673        -0.04198
H         31.60105        50.92812        -0.48005
H         30.36075        53.05973        -0.42772
H         32.92371        16.21733         0.11961
H         34.10562        18.29446        -0.10154
H         34.12849        46.66479        -0.35769
H         32.85743        48.82154        -0.38579
H         35.33284        20.37285        -0.10038
H         36.54615        22.74864         0.09067
H         36.53017        42.19309        -0.24496
H         35.36535        44.32333        -0.40903
H         37.62415        24.73510         0.00518
H         39.08204        26.91934        -0.22801
H         38.91512        37.93223        -0.29900
H         37.72206        40.03933        -0.25492
H         40.16016        29.05496        -0.67516
H         41.35841        31.20372        -0.91627
H         41.35423        33.65310        -0.72436
H         40.14195        35.80429        -0.46394
