         210
 CSIRO Nanostructure Databank - Neutral Graphene Oxide Data Set
C         30.39258        31.71886        -0.12848
C         30.41492        32.95717        -0.16672
C         30.46170        36.11081        -0.36966
C         30.45442        37.36179        -0.30486
C         30.47646        40.46767        -0.36403
C         30.40715        41.71670        -0.36798
C         32.81027        28.88226        -0.51625
C         31.67305        29.39073        -0.43549
C         32.81032        31.55554        -0.09210
C         31.48246        30.76386         0.05874
C         32.79698        33.07058        -0.10618
C         31.56271        33.81398        -0.65373
C         32.79598        36.00776        -0.14661
C         31.59781        35.27087        -0.29362
C         32.80851        37.45664        -0.09761
C         31.58666        38.20568        -0.22356
C         32.81862        40.35328        -0.10793
C         31.59709        39.61306        -0.23773
C         32.80564        41.79493        -0.09229
C         31.55314        42.54042        -0.21341
C         32.83057        44.47957         0.03991
C         31.70739        43.93843        -0.13966
C         35.55440        27.35586        -0.81336
C         35.35957        28.78753        -0.72907
C         34.13140        29.40985        -0.65082
C         35.36517        31.66484        -0.56367
C         34.05399        30.89650        -0.61399
C         35.37885        33.10626        -0.22096
C         34.08750        33.82593        -0.10365
C         35.26729        35.98285        -0.08797
C         34.08453        35.31285        -0.20229
C         35.26774        37.40626         0.42619
C         34.02483        38.19005         0.04456
C         35.29346        40.33058         0.22185
C         34.04392        39.60405         0.04866
C         35.27414        41.73406         0.23699
C         34.05321        42.48821         0.08067
C         35.33808        44.64855         0.32867
C         34.11031        43.92254         0.16483
C         35.49679        46.03879         0.53036
C         37.92114        27.33385        -0.24176
C         36.62458        26.82755        -0.42135
C         37.95772        28.78378        -0.74691
C         36.62307        29.52486        -0.63021
C         37.85908        31.66161        -0.31997
C         36.63113        30.90775        -0.50663
C         37.83312        33.07279        -0.24635
C         36.56518        33.78932        -0.23552
C         37.81078        35.98328        -0.00157
C         36.55946        35.28884        -0.46593
C         37.76549        37.39765         0.21779
C         36.57154        38.13842         0.22896
C         37.76745        40.27879         0.34949
C         36.55877        39.58395         0.31224
C         37.81368        41.72992         0.55258
C         36.51302        42.50152         0.50796
C         37.84653        44.64955         0.44993
C         36.58541        43.97133         0.33653
C         37.89352        46.05306         0.82279
C         36.59653        46.59117         0.79958
C         40.15973        24.73160         1.12755
C         39.17401        25.35377         0.67609
C         40.30111        27.42058         0.46912
C         39.04536        26.71140         0.27871
C         40.31131        28.84223         0.22347
C         39.13527        29.53490        -0.16858
C         40.31489        31.69098         0.02009
C         39.10483        30.95122        -0.16979
C         40.28776        33.12376        -0.02624
C         39.05329        33.82030        -0.11685
C         40.28772        35.97329         0.08834
C         39.02179        35.26720        -0.00157
C         40.31421        37.38320         0.17102
C         39.05510        38.07902         0.44922
C         40.29606        40.31774         0.09424
C         39.06003        39.59357         0.46864
C         40.25473        41.70931        -0.01208
C         39.05838        42.45857         0.25623
C         40.31148        44.49489        -0.12610
C         39.05224        43.85741         0.19741
C         40.34921        46.41651         0.85830
C         39.07812        46.70816         1.37435
C         40.33391        47.83595         3.07170
C         39.23982        47.49850         2.54614
C         42.66516        24.83209         1.77742
C         41.43184        25.33353         1.32293
C         42.70293        27.49803         1.05624
C         41.46739        26.75402         0.96071
C         42.74273        28.89005         0.73995
C         41.52919        29.57962         0.41323
C         42.78654        31.71087         0.30404
C         41.53897        30.99098         0.23930
C         42.78130        33.12609         0.15529
C         41.53201        33.84830         0.05553
C         42.80101        36.00578         0.31326
C         41.51194        35.25118         0.07647
C         42.75703        37.45562        -0.12102
C         41.52709        38.14312         0.01148
C         42.73151        40.23519        -0.44266
C         41.51371        39.57365        -0.11005
C         42.75561        41.70670        -0.60293
C         41.49297        42.44433        -0.33415
C         42.82516        44.70135        -0.02072
C         41.53314        43.88724        -0.04849
C         42.80208        45.83940         1.05720
C         41.62126        46.56073         1.50232
C         42.93118        47.66545         3.19262
C         41.63062        47.43120         2.68040
C         43.71304        25.52777         1.83870
C         45.16091        27.57121         1.43801
C         43.92930        26.87018         1.48133
C         45.21085        28.91685         0.97865
C         43.99418        29.59725         0.72106
C         45.26186        31.73953         0.49138
C         44.01339        31.01467         0.47310
C         45.22970        33.16125         0.31351
C         44.02146        33.82738         0.12519
C         45.24029        36.05218        -0.25934
C         43.95756        35.26348        -0.33741
C         45.20361        37.38728        -0.53760
C         43.94320        38.12701        -0.48771
C         45.10143        40.33515        -1.22654
C         43.92676        39.53593        -0.65857
C         45.23291        41.70076        -0.57609
C         44.03617        42.42626        -0.35274
C         45.30224        44.28387         0.52773
C         44.04442        43.75748         0.10717
C         45.28389        45.50955         1.28793
C         44.05307        46.15092         1.64702
C         43.93387        47.12001         2.67062
C         47.47548        27.74910         1.81267
C         46.43763        27.02922         1.80889
C         47.76483        29.03781         1.38252
C         46.53245        29.58043         0.62229
C         47.75820        31.79399         0.58522
C         46.50574        31.08485         0.64393
C         47.78579        33.18708         0.33602
C         46.50529        33.91626         0.38776
C         47.78481        36.03228        -0.32579
C         46.51530        35.38378         0.06801
C         47.74763        37.39253        -0.71675
C         46.45364        38.07973        -0.93404
C         47.70679        40.30151        -1.23809
C         46.42063        39.56083        -1.25295
C         47.72514        41.67178        -0.87659
C         46.49434        42.31086        -0.41337
C         47.80486        44.13433         0.64545
C         46.52811        43.58485         0.25027
C         47.66757        45.31227         1.40702
C         46.57424        45.86749         1.69767
C         50.24973        29.33662         1.74170
C         48.96476        29.76126         1.35357
C         50.23685        31.84135         0.71599
C         49.00707        31.12624         0.84922
C         50.22339        33.16914         0.16847
C         49.00717        33.88478         0.07964
C         50.21283        35.99359        -0.62910
C         48.99082        35.30405        -0.29443
C         50.18992        37.38503        -1.01727
C         48.93172        38.07780        -1.07038
C         50.06227        40.01948        -1.97488
C         48.87751        39.47285        -1.45298
C         50.11956        42.14295        -1.50954
C         48.94767        42.46821        -0.78218
C         50.33388        44.04763         0.25107
C         49.00477        43.57900         0.12996
C         51.35750        29.93714         1.65390
C         52.62147        32.07944         0.88980
C         51.50601        31.23373         1.14892
C         52.61927        33.24909         0.45543
C         51.50285        33.78128        -0.42578
C         52.51925        36.09069        -0.87616
C         51.44211        35.26235        -0.57957
C         52.56952        37.31478        -1.18131
C         51.40712        38.09777        -1.35100
C         52.35615        40.43958        -1.93614
C         51.34296        39.44023        -1.82649
C         52.43489        41.65922        -1.67193
C         51.45064        42.58313        -1.20755
C         51.41143        43.63755        -0.25740
O         40.30784        45.85932        -0.41865
O         37.13646        42.12755         1.79795
O         33.31673        33.54058         1.15631
O         41.97713        42.20224        -1.74652
O         49.96854        41.27518        -2.60731
O         46.50871        34.92892         1.47920
O         32.31830        31.03569         1.18905
O         39.14150        38.82375         1.72611
O         46.36726        38.56885        -2.33736
O         34.58761        31.50184        -1.82918
O         31.62528        33.72104        -2.08025
H         30.86643        34.21118        -2.46065
O         51.68893        33.23333        -1.73449
H         51.79439        32.26189        -1.65793
O         42.99477        45.36115        -1.29743
H         42.86022        44.69044        -2.00119
O         35.16997        37.24380         1.89101
H         35.28677        38.12822         2.29990
O         43.03623        36.01439         1.74715
H         42.28474        36.47127         2.18006
O         38.22874        28.69330        -2.18328
H         37.46763        28.23186        -2.59745
O         36.62478        35.41280        -1.93821
H         35.93292        34.83344        -2.32428
O         44.76315        40.60904        -2.61111
H         44.99536        39.80107        -3.12351
O         46.78678        29.20328        -0.77787
H         46.76021        28.22351        -0.83134
O         43.62497        35.20102        -1.75815
H         44.33725        34.71893        -2.22742
