         618
 CSIRO Nanostructure Databank - Neutral Graphene Oxide Data Set
C         22.94753        70.01000         0.71406
C         22.91143        71.40337         0.60493
C         21.73760        72.12159         0.25299
C         22.96002        74.24164         0.11911
C         21.77351        73.50259         0.04449
C         25.49333        65.70823         0.84167
C         25.38704        67.10037         0.65348
C         24.21310        67.83569         0.85753
C         25.39411        69.98636         0.76288
C         24.18199        69.28268         0.79292
C         25.45604        71.43868         0.93246
C         24.13272        72.19660         0.85559
C         25.41230        74.29470         0.43475
C         24.18655        73.62226         0.46830
C         27.99944        61.46794         0.62292
C         27.97321        62.84648         0.50123
C         26.82321        63.60456         0.86208
C         27.87094        65.71533         0.18112
C         26.70288        64.98860         0.59156
C         27.88282        67.11472         0.19376
C         26.57683        67.86257         0.11538
C         27.84919        70.02897         0.25295
C         26.68429        69.22562         0.78872
C         27.89517        71.49483         0.46993
C         26.70392        72.18644         0.64690
C         27.88394        74.29673         0.23647
C         26.67648        73.61792         0.50302
C         30.32382        57.09482         0.82161
C         30.30755        58.50316         0.62124
C         29.11206        59.21701         0.48646
C         30.40389        61.33182         0.15394
C         29.08197        60.62764        -0.01095
C         30.40851        62.79478        -0.12079
C         29.06480        63.50302        -0.33354
C         30.27752        65.64590         0.73182
C         29.18149        65.05644        -0.21373
C         30.34075        67.14997         0.51204
C         29.11160        67.81627         0.24323
C         30.36107        70.02954         0.54730
C         29.12832        69.28231         0.09733
C         30.34874        71.46697         0.10489
C         29.12357        72.18377         0.22851
C         30.34707        74.25156        -0.22950
C         29.11437        73.60541         0.09645
C         32.77442        52.78987         0.82698
C         32.74348        54.21151         0.80506
C         31.54286        54.94969         0.89880
C         32.78022        57.07523         0.63622
C         31.53359        56.36593         0.80365
C         32.79513        58.50471         0.58572
C         31.57677        59.20555         0.56150
C         32.81113        61.35745         0.83668
C         31.55471        60.64726         0.47372
C         32.82336        62.85167         0.77803
C         31.63938        63.56150         0.22494
C         32.79218        65.67287         0.69980
C         31.62128        65.01219         0.51400
C         32.81443        67.15691         1.00080
C         31.55047        67.83751         0.54828
C         32.78943        69.88230        -0.06108
C         31.62340        69.25791         0.28655
C         32.77101        71.31988        -0.44448
C         31.52479        72.11424        -0.25882
C         32.76764        74.25480        -0.90583
C         31.51691        73.53348        -0.43901
C         35.31124        48.53088         0.41807
C         35.27625        49.91791         0.68632
C         34.04198        50.62477         0.77621
C         35.22619        52.74545         0.75501
C         33.99709        52.04819         0.82464
C         35.20122        54.15389         0.41830
C         33.96952        54.94145         0.59535
C         35.25568        57.06852         0.09806
C         33.98798        56.33533         0.50962
C         35.28822        58.52621         0.48798
C         34.07914        59.21707         0.58299
C         35.30949        61.34119         0.78523
C         34.10318        60.63810         0.75052
C         35.31655        62.81594         0.94721
C         34.09017        63.58083         0.68863
C         35.29393        65.72278         0.67839
C         34.08861        64.98738         0.65226
C         35.35399        67.19898         1.01316
C         34.07933        67.78176         0.48620
C         35.26472        69.98427         0.41468
C         34.09954        69.11962        -0.21976
C         35.32453        71.39038        -0.14511
C         34.07519        72.07236        -0.52411
C         35.24622        74.22519        -0.50055
C         34.06699        73.54980        -0.56780
C         37.81401        44.29182         0.02608
C         37.78351        45.67811         0.29331
C         36.57332        46.41005         0.23104
C         37.73208        48.50231         0.81236
C         36.52873        47.81320         0.44856
C         37.72971        49.90354         0.97624
C         36.52314        50.60558         0.87708
C         37.78759        52.77813         0.77723
C         36.50479        52.07874         1.19243
C         37.77010        54.13296         0.52028
C         36.51436        54.86581         0.29465
C         37.80146        57.05944         0.66122
C         36.49759        56.32885         0.56334
C         37.78509        58.52317         0.51545
C         36.54397        59.21999         0.54201
C         37.79582        61.35502         0.52140
C         36.55713        60.65289         0.63190
C         37.83606        62.80234         0.52192
C         36.60055        63.56809         0.80546
C         37.83667        65.70948         0.46937
C         36.53365        64.98211         0.23696
C         37.83604        67.15566         0.42984
C         36.60207        67.87888         0.48698
C         37.78911        69.98052         0.05568
C         36.58140        69.25519         0.28794
C         37.78216        71.39900        -0.09675
C         36.51221        72.09234        -0.19810
C         37.71744        74.22154        -0.44780
C         36.52060        73.53615        -0.39598
C         40.20543        40.06164        -0.55784
C         40.22122        41.45889        -0.31793
C         39.02631        42.17553        -0.20843
C         40.25915        44.24598         0.34077
C         39.02256        43.57156         0.05999
C         40.23237        45.62865         0.69063
C         39.00453        46.32181         0.69367
C         40.26662        48.46107         1.35880
C         38.93015        47.71880         1.12162
C         40.28173        49.90660         1.18634
C         38.98780        50.64828         1.42493
C         40.25510        52.68078         0.63608
C         39.02792        52.05980         0.88908
C         40.29093        54.09494         0.22293
C         38.99875        54.88032         0.21746
C         40.27808        57.00913         0.40651
C         39.06009        56.33387         0.42890
C         40.27268        58.47307         0.49354
C         39.02368        59.19883         0.47881
C         40.26915        61.32376         0.35855
C         39.02300        60.63102         0.42748
C         40.25046        62.77468        -0.08804
C         39.00384        63.51562         0.33316
C         40.30594        65.64835         0.52935
C         39.00551        64.96334         0.43320
C         40.32592        67.18445         0.38017
C         39.03565        67.86900         0.24283
C         40.25560        69.98812        -0.13013
C         39.03447        69.27925         0.04279
C         40.24562        71.40800        -0.25805
C         38.99186        72.10909        -0.24616
C         40.19885        74.23240        -0.47945
C         38.98806        73.54344        -0.39316
C         42.52544        35.78620        -1.22783
C         42.51066        37.18444        -1.19506
C         41.33896        37.93603        -0.96555
C         42.66631        40.03777        -0.72697
C         41.38783        39.32942        -0.73824
C         42.68879        41.46296        -0.43894
C         41.48829        42.15442        -0.20208
C         42.74096        44.18978         0.38683
C         41.50514        43.53698         0.18666
C         42.75609        45.52101         1.11340
C         41.48096        46.33448         0.96128
C         42.77691        48.43159         1.53782
C         41.50848        47.68575         1.17740
C         42.75881        49.88739         1.10365
C         41.49943        50.58160         0.99885
C         42.74522        52.70458         0.61009
C         41.50971        52.00065         0.77635
C         42.74259        54.11082         0.40374
C         41.54194        54.85330         0.34955
C         42.78757        56.96646         0.51814
C         41.52288        56.27136         0.34663
C         42.74643        58.42654         0.79918
C         41.47523        59.18368         0.58450
C         42.73265        61.38391         0.52764
C         41.46361        60.61795         0.52252
C         42.74673        62.79964         0.10712
C         41.53833        63.52961         0.13862
C         42.79108        65.69686         0.19894
C         41.53753        64.91840         0.25285
C         42.74626        67.12901        -0.19961
C         41.53535        67.84004        -0.12405
C         42.67959        69.95892        -0.57576
C         41.50559        69.27123        -0.30819
C         42.77829        71.42293        -0.25758
C         41.45651        72.12887        -0.40312
C         42.69785        74.23133        -0.50348
C         41.45263        73.54350        -0.47111
C         44.89929        32.91471        -0.77854
C         43.72297        33.61523        -1.01796
C         44.98745        35.69729        -1.01643
C         43.73945        35.03063        -1.13703
C         45.06454        37.14866        -1.22331
C         43.77672        37.93117        -1.33743
C         45.10223        40.13234        -1.36056
C         43.83251        39.36814        -1.02180
C         45.16379        41.48371        -0.66717
C         43.94220        42.15034        -0.36539
C         45.20461        44.21642         0.07266
C         43.95720        43.52138         0.06209
C         45.18612        45.67003         0.30593
C         43.98759        46.33414         0.82743
C         45.24534        48.41332         1.18393
C         44.02995        47.70975         1.08863
C         45.22166        49.87449         1.33393
C         43.95728        50.58707         1.00656
C         45.24523        52.69598         0.60184
C         43.99897        51.99636         0.73303
C         45.26446        54.09184         0.30900
C         43.99132        54.83225         0.00272
C         45.30576        56.92265         0.58357
C         43.98095        56.27595         0.46484
C         45.37087        58.43654         0.65336
C         44.06392        59.17066         0.80989
C         45.19233        61.28450        -0.14068
C         44.04098        60.65220         0.56414
C         45.18872        62.75496        -0.22859
C         44.00562        63.45366        -0.08080
C         45.15504        65.59632        -0.88715
C         44.04818        64.93701        -0.08446
C         45.17775        67.09823        -0.74594
C         43.93923        67.77776        -0.58045
C         45.16885        69.94454        -0.95215
C         43.87062        69.20002        -1.06244
C         45.13277        71.36906        -1.09396
C         43.96732        72.15033        -0.85291
C         45.13143        74.40234        -0.59495
C         43.95073        73.58994        -0.70798
C         46.12242        33.58407        -0.63112
C         47.43271        35.71239        -0.62018
C         46.17950        34.98612        -0.73677
C         47.49613        37.08314        -0.61366
C         46.22295        37.90352        -0.60376
C         47.60902        39.98135        -0.63409
C         46.42572        39.26942        -1.26796
C         47.62673        41.35853        -0.52048
C         46.39765        42.13531        -0.48977
C         47.67991        44.24152         0.02424
C         46.42266        43.54106        -0.14982
C         47.74157        45.56881         0.43595
C         46.50946        46.37494         0.51310
C         47.82380        48.37797         1.26863
C         46.51211        47.60601         1.39620
C         47.83420        49.88974         1.22145
C         46.53212        50.64222         1.25931
C         47.71706        52.64970         0.37780
C         46.51323        52.02390         0.73151
C         47.71916        54.05632         0.05178
C         46.47019        54.77434         0.12298
C         47.65426        56.91495        -0.24926
C         46.49636        56.21724         0.07015
C         47.70983        58.36604        -0.24285
C         46.56835        59.09360         0.10764
C         47.76238        61.29556        -0.16722
C         46.48312        60.52715        -0.24819
C         47.71570        62.82352        -0.19508
C         46.43259        63.41007        -0.79464
C         47.70683        65.69118        -0.47247
C         46.44617        64.90275        -0.62248
C         47.61208        66.99474        -1.29945
C         46.36676        67.78897        -0.98515
C         47.63570        69.91692        -1.19753
C         46.38745        69.23150        -1.05690
C         47.63386        71.34093        -1.36094
C         46.36330        71.95533        -1.51119
C         47.69788        74.31460        -0.69752
C         46.39081        74.01635        -1.09481
C         48.73213        37.80066        -0.46672
C         50.11130        39.80463        -0.02269
C         48.79133        39.17758        -0.42111
C         50.17504        41.30317        -0.20505
C         48.93178        42.05207        -0.46930
C         50.22007        44.16755         0.18266
C         48.95295        43.54500        -0.24025
C         50.22208        45.51746         0.51038
C         48.99431        46.25761         0.59913
C         50.25228        48.38070         0.70847
C         49.03380        47.65185         0.83357
C         50.24096        49.81645         0.58268
C         49.03610        50.55307         0.68800
C         50.17385        52.58067        -0.05231
C         48.98622        51.92994         0.34729
C         50.11108        53.95365        -0.59485
C         48.86945        54.71190        -0.39012
C         50.13322        56.90932        -1.00124
C         48.81870        56.14416        -0.73241
C         50.14676        58.37839        -0.81252
C         48.95458        59.05104        -0.57969
C         50.24086        61.23363        -0.81135
C         49.02038        60.52155        -0.40874
C         50.17359        62.66509        -1.15548
C         48.88378        63.44545        -0.93828
C         50.10603        65.56647        -1.24424
C         48.94324        64.90774        -0.89529
C         50.08504        67.03609        -1.23162
C         48.91086        67.75811        -1.16348
C         50.08136        69.94046        -1.23222
C         48.89627        69.21188        -1.16926
C         50.11343        71.38519        -1.68746
C         48.82772        72.12686        -1.38478
C         50.11458        74.16232        -0.90758
C         48.85555        73.52877        -1.06557
C         51.35885        41.96538        -0.08895
C         52.67593        44.04431         0.12668
C         51.44756        43.41111         0.05310
C         52.79828        45.44121         0.54414
C         51.48062        46.22143         0.79318
C         52.70770        48.36652         0.44862
C         51.49395        47.68405         0.63455
C         52.69830        49.78786         0.26045
C         51.46127        50.50172         0.29024
C         52.66135        52.60668        -0.16733
C         51.42796        51.90345         0.00897
C         52.68262        54.03602        -0.45119
C         51.42265        54.71085        -0.84989
C         52.59189        56.91066        -0.83860
C         51.41067        56.19104        -0.86888
C         52.60889        58.34617        -0.97336
C         51.41793        59.07523        -0.91792
C         52.64161        61.28029        -1.19789
C         51.42844        60.53589        -0.99159
C         52.65908        62.69285        -1.26501
C         51.41411        63.44281        -1.28626
C         52.60150        65.56428        -1.72765
C         51.34989        64.83096        -1.41087
C         52.61615        67.10035        -1.71432
C         51.37040        67.73383        -1.10147
C         52.62136        69.97456        -1.29209
C         51.35637        69.25330        -1.05307
C         52.62169        71.38279        -1.27097
C         51.38093        72.08873        -1.26330
C         52.58510        74.18016        -0.78863
C         51.36130        73.48291        -1.00352
C         53.97965        46.24020         0.24027
C         55.16756        48.37492         0.16776
C         53.96171        47.63676         0.30732
C         55.18824        49.78544         0.09100
C         53.91559        50.49559         0.04533
C         55.14183        52.65552        -0.28476
C         53.88201        51.89661        -0.10947
C         55.10313        54.10772         0.13751
C         53.84704        54.75843        -0.39492
C         55.18194        56.91891        -0.78050
C         53.87945        56.16966        -0.83921
C         55.17191        58.39347        -0.80744
C         53.90604        59.03538        -1.21365
C         55.16604        61.27933        -1.03135
C         53.91609        60.55571        -1.32973
C         55.13754        62.69502        -1.12737
C         53.91298        63.37503        -1.32904
C         55.21123        65.57724        -1.52782
C         53.91490        64.81402        -1.66700
C         55.20167        67.07476        -1.42647
C         53.88066        67.73225        -1.05944
C         55.18615        69.98834        -1.30765
C         53.86133        69.21850        -1.41608
C         55.09626        71.42977        -1.01732
C         53.86834        72.10277        -1.08158
C         55.04284        74.22775        -0.57661
C         53.82906        73.52698        -0.82687
C         56.40700        50.48268         0.11882
C         57.62970        52.73218         0.28966
C         56.48614        51.91730        -0.09404
C         57.62961        54.13709         0.14404
C         56.39601        54.84629        -0.12015
C         57.60612        56.98570        -0.19666
C         56.40624        56.21829        -0.32869
C         57.58508        58.40438        -0.31457
C         56.34512        59.11207        -0.62601
C         57.54974        61.28382        -0.42256
C         56.35849        60.56820        -0.71329
C         57.57004        62.72991        -0.50452
C         56.36653        63.45434        -0.93147
C         57.48650        65.58608        -0.30431
C         56.38171        64.82884        -1.02347
C         57.52002        67.07645        -0.53420
C         56.40868        67.79508        -0.90647
C         57.51342        69.98667        -0.53698
C         56.38829        69.24582        -0.88754
C         57.50475        71.41923        -0.56083
C         56.30131        72.12992        -0.68775
C         57.49078        74.25767        -0.18668
C         56.28195        73.56877        -0.50035
C         58.82021        54.88856         0.27161
C         60.01178        57.04412         0.31340
C         58.82676        56.29719         0.13294
C         60.00481        58.45123         0.22768
C         58.77519        59.13605        -0.08716
C         59.94049        61.27124         0.22169
C         58.76470        60.57151        -0.10974
C         59.87806        62.72915         0.36012
C         58.72329        63.43407        -0.20674
C         60.02216        65.62629         0.08733
C         58.83331        64.90817        -0.53795
C         59.99067        67.07586         0.16853
C         58.68887        67.76120         0.04324
C         59.97127        69.96073         0.14032
C         58.68836        69.28497         0.00815
C         60.05402        71.39629        -0.12025
C         58.76781        72.16689        -0.45772
C         59.94873        74.25697         0.20205
C         58.73954        73.60784        -0.13402
C         61.18794        59.19386         0.47576
C         62.37320        61.34561         0.76300
C         61.17881        60.60128         0.49658
C         62.41465        62.74970         0.81447
C         61.13663        63.49295         0.68459
C         62.48533        65.67152         0.51661
C         61.16266        64.94780         0.42835
C         62.33806        67.11156         0.94246
C         61.10244        67.80240         0.59110
C         62.24692        69.98506         1.00634
C         61.07593        69.25698         0.63005
C         62.28564        71.39032         0.90381
C         61.18977        72.13246         0.42483
C         62.34317        74.26010         0.88608
C         61.17174        73.57002         0.45859
C         63.57180        63.47974         1.13295
C         64.57556        65.58318         1.89275
C         63.57248        64.91102         1.24289
C         64.51275        67.04938         2.23221
C         63.37558        67.76962         1.53573
C         64.64295        69.93668         1.93689
C         63.34927        69.23945         1.64869
C         64.78295        71.35488         1.48945
C         63.56702        72.11151         1.06215
C         64.72618        74.22504         1.60333
C         63.55072        73.58590         1.18952
C         65.83854        67.77546         2.12989
C         67.08831        69.91695         2.32283
C         65.90352        69.16101         2.11187
C         67.09422        71.34824         2.38036
C         65.94535        72.09454         1.99351
C         67.08810        74.19200         2.41287
C         65.91650        73.51100         1.98798
C         68.24733        72.07869         2.77297
C         68.22476        73.47442         2.79105
O         28.38807        69.72741        -1.07980
O         43.40204        58.81590         2.05143
O         45.85477        50.45407         2.53970
O         55.91195        52.34573        -1.42537
O         24.76243        71.91442         2.14742
O         39.44428        47.98774         2.48662
O         31.37705        63.18035        -1.17316
O         35.85675        54.45522        -0.95299
O         45.62979        57.61074         1.83677
O         55.41591        66.45741        -2.71303
O         60.18836        63.16851         1.76452
O         54.64038        69.56437        -2.59836
O         52.25676        45.69881         1.90298
O         26.29224        68.14617        -1.32197
O         49.18393        62.88423        -2.24233
O         43.58315        61.33482         1.75767
O         45.60910        60.67740        -1.42731
O         36.06518        63.34107         2.13027
O         43.80994        65.46026         1.24971
O         39.61360        54.41266        -1.04647
O         46.31181        73.13436        -2.21989
O         48.54699        60.87741         0.99837
O         53.98345        59.69126        -2.52609
O         53.23946        65.06156        -2.94899
O         63.67188        69.75720         3.02506
O         54.67089        56.36038        -2.06780
O         37.01038        56.63447         1.88143
O         64.53838        71.58791         0.05817
O         49.04982        42.98446        -1.60921
O         45.83610        46.49613        -0.76044
O         58.34509        68.53962         1.24408
O         32.63089        62.15991         2.06781
O         59.71628        71.79630        -1.50900
O         51.46497        68.41495         0.18979
O         50.70337        54.07128        -1.94280
O         49.26420        56.46802        -2.09205
O         33.42381        71.51298        -1.76624
O         40.46802        66.53149         1.68983
O         44.58925        37.59702        -2.52874
O         48.09777        49.16911         2.47420
O         44.92268        40.46349        -2.77343
H         44.69741        39.61500        -3.22284
O         43.06000        71.44606         1.20886
H         42.30375        71.00822         1.65698
O         29.53726        65.57013        -1.51409
H         29.36141        64.83990        -2.15766
O         28.66752        63.26229        -1.70802
H         28.64707        62.27565        -1.84345
O         47.47280        66.56150        -2.69502
H         47.81726        67.27284        -3.27596
O         36.47119        52.16097         2.66344
H         37.28424        51.69143         2.99351
O         42.81790        45.19924         2.55761
H         42.01407        44.68053         2.77644
O         30.22305        70.05946         2.01194
H         31.08075        70.34365         2.39353
O         26.98630        68.95650         2.19240
H         26.87289        69.78969         2.69762
O         50.18028        71.31693        -3.17379
H         50.24828        72.23753        -3.50654
O         28.78330        60.55816        -1.48227
H         29.52901        60.08131        -1.90670
O         54.96489        54.06500         1.60075
H         55.05167        54.97834         1.94562
O         52.58750        67.53498        -3.08440
H         53.18965        66.93748        -3.58963
O         34.95691        70.13292         1.82759
H         35.16494        69.26652         2.26930
O         35.28754        57.06265        -1.36046
H         35.34795        56.11378        -1.63885
O         53.87445        67.55608         0.37415
H         53.04822        67.97081         0.73495
O         44.84169        65.34470        -2.31389
H         45.60839        65.71888        -2.81678
O         47.85019        66.08195         0.92113
H         47.78251        65.25277         1.45251
O         57.19691        65.43898         1.11548
H         56.53232        66.11085         1.37673
O         46.88513        38.98882        -2.60589
H         46.81494        39.82354        -3.12069
O         47.77072        63.28714         1.17458
H         48.22197        62.58234         1.70033
O         35.44529        67.40078         2.47594
H         34.57427        67.12097         2.85518
O         40.16473        62.69586        -1.56260
H         39.28762        62.31883        -1.78994
O         46.45072        63.11380        -2.21560
H         45.67640        63.57264        -2.61801
O         62.95673        65.73521        -0.88177
H         62.36578        66.35056        -1.36639
O         36.42999        64.77373        -1.21567
H         36.30903        65.64989        -1.64016
O         42.81433        48.43407         2.99559
H         42.90713        47.49852         3.28382
O         64.17779        67.10155         3.66593
H         63.97584        68.04910         3.86775
O         29.93004        65.39439         2.11726
H         29.07744        65.84504         2.30200
O         38.85034        50.75052         2.89621
H         38.97087        49.83169         3.24059
O         26.23975        66.87480        -2.00452
H         27.18567        66.71079        -2.24704
O         34.38650        68.94921        -1.62651
H         34.14708        69.80155        -2.07043
O         32.78564        75.60414        -0.43860
H         32.83735        75.59406         0.53879
O         43.64461        69.05820        -2.53760
H         44.31099        68.41692        -2.86798
O         32.78255        67.25068         2.48534
H         32.04001        66.68180         2.79029
O         46.46739        47.10982         2.76152
H         46.72714        47.86426         3.33974
O         59.07439        64.98908        -1.97462
H         59.87943        64.47298        -2.18875
O         43.96165        54.89990        -1.47971
H         43.05633        55.17313        -1.74376
O         45.87417        38.16213         0.78452
H         45.93902        37.31987         1.28151
O         51.19998        39.16301        -0.69673
H         51.09951        39.32313        -1.65750
H         22.95151        75.31305        -0.12749
H         25.41627        75.37096         0.20313
H         27.86186        75.38624         0.08378
H         30.36830        75.34567        -0.34438
H         32.71292        74.31119        -2.02986
H         35.24671        75.32289        -0.58336
H         37.71140        75.31648        -0.55905
H         40.19397        75.32923        -0.56724
H         42.68615        75.32921        -0.42554
H         45.04694        75.33356        -0.01520
H         47.86606        75.17189        -0.02887
H         50.12956        75.23163        -0.64896
H         52.54940        75.25915        -0.57676
H         54.99983        75.31399        -0.40656
H         57.44211        75.33825         0.01549
H         59.92872        75.34689         0.35386
H         62.30943        75.35673         0.97134
H         64.74118        75.32386         1.66604
H         67.09962        75.29112         2.43271
H         22.01043        69.44316         0.60799
H         20.79438        71.57323         0.11751
H         20.84499        74.02052        -0.23488
H         24.61746        65.14915         1.20610
H         23.27962        67.30715         1.10535
H         27.19425        60.95836         1.17454
H         25.96594        63.07510         1.30510
H         29.36979        56.55571         0.91724
H         28.15600        58.67488         0.54489
H         31.82333        52.24095         0.89178
H         30.58899        54.41697         1.02710
H         34.37367        47.99187         0.21918
H         33.10098        50.06047         0.69942
H         36.88207        43.77026        -0.23577
H         35.64064        45.87628        -0.00164
H         39.23684        39.54317        -0.61529
H         38.06718        41.65732        -0.35320
H         41.56921        35.24447        -1.17052
H         40.36691        37.42231        -0.92461
H         44.87154        31.81903        -0.69624
H         42.76855        33.07776        -1.11119
H         47.04374        33.01412        -0.44554
H         48.36232        35.12701        -0.54587
H         49.66135        37.22582        -0.33191
H         50.26164        39.59455         1.07560
H         52.28421        41.38273         0.03541
H         53.59048        43.49116        -0.13540
H         54.90437        45.72692        -0.06401
H         56.11998        47.82611         0.12329
H         57.32564        49.93972         0.38662
H         58.53693        52.22804         0.65410
H         59.76612        54.36713         0.47944
H         60.94743        56.52215         0.56216
H         62.12111        58.65399         0.69350
H         63.30526        60.78318         0.92428
H         64.48283        62.93068         1.41850
H         65.38060        65.00302         2.37184
H         66.75902        67.19668         2.30326
H         68.02735        69.38063         2.52639
H         69.15989        71.53823         3.06205
H         69.12508        74.02164         3.10486
