         255
 CSIRO Nanostructure Databank - Neutral Graphene Oxide Data Set
C         30.64237        31.49679        -1.54854
C         30.60683        32.72606        -1.67595
C         30.49238        36.16049        -1.27169
C         30.21367        37.34796        -1.06157
C         30.13959        40.77217        -0.47429
C         30.12213        41.94525         0.00546
C         33.11865        29.00297        -0.31131
C         32.09749        29.36191        -0.97451
C         32.83450        31.65152        -0.50639
C         31.53358        30.75252        -0.59681
C         32.84823        32.95925        -0.87119
C         31.54358        33.70139        -1.09112
C         32.79780        35.90277        -0.54594
C         31.50553        35.17366        -0.86552
C         32.82497        37.12855         0.04528
C         30.83865        38.33349        -0.22506
C         32.29533        40.21133         0.52679
C         30.99682        39.69839        -0.15193
C         32.32791        41.66597         0.94696
C         31.08356        42.56138         0.80665
C         32.37067        44.35592         1.86676
C         31.33216        43.81055         1.37150
C         35.55567        27.68166         1.23840
C         35.24437        29.15975         1.26259
C         34.15886        29.63905         0.35606
C         35.39785        31.80399         0.03204
C         34.05670        31.08052         0.12069
C         35.46301        32.96400        -0.98256
C         34.11046        33.72224        -1.05518
C         35.34605        35.92530        -0.62193
C         34.06400        35.22586        -0.94246
C         35.33326        37.37349        -0.20520
C         33.98930        38.07918         0.27964
C         34.58770        40.48743        -0.27298
C         33.59291        39.59452         0.00983
C         34.85006        41.81540         0.33342
C         33.65861        42.42133         1.03409
C         34.95517        44.62970         1.13691
C         33.64878        43.92800         1.21969
C         35.32410        45.87355         1.80539
C         37.93465        27.71614         1.87246
C         36.58086        27.19856         1.72960
C         37.86655        29.28296         1.63099
C         36.62632        29.82113         0.90771
C         37.91596        31.91940         0.40407
C         36.65532        31.05703         0.33888
C         37.93823        33.16527        -0.46687
C         36.67588        33.86996        -0.68840
C         37.91008        36.00184        -1.26037
C         36.63479        35.21218        -0.94498
C         37.91837        37.32026        -0.43856
C         36.58923        38.06092        -0.79211
C         37.71672        40.26591        -0.16740
C         36.65540        39.51654        -0.54156
C         37.54560        41.78918        -0.34397
C         36.19431        42.53177         0.08963
C         37.60903        44.25797         1.43192
C         36.27971        43.90273         0.72031
C         37.75309        45.71140         1.97938
C         36.41844        46.25855         2.21192
C         40.11463        24.68098         1.20591
C         39.20687        25.41990         1.61262
C         40.53459        27.46117         1.30787
C         39.17335        26.88047         1.80428
C         40.40906        28.93566         0.84835
C         39.18169        29.81607         1.05066
C         40.38078        31.65667        -0.07548
C         39.18439        31.10806         0.33402
C         40.41857        33.01606        -0.74140
C         39.13547        33.78812        -0.67876
C         40.45860        35.99163        -0.67803
C         39.20789        35.22358        -1.04692
C         40.42419        37.49527        -0.50742
C         39.19145        38.18234        -0.57481
C         40.00480        40.52955        -0.82765
C         39.03830        39.62903        -0.40097
C         39.99936        41.93543        -0.47481
C         38.80231        42.53695         0.09725
C         40.06759        44.60782         0.59572
C         38.83941        43.80449         0.64307
C         40.10088        45.94361         0.92704
C         38.97487        46.52318         1.73502
C         40.08778        48.63976         1.48714
C         39.07147        47.98632         1.80315
C         42.51445        24.51829        -0.00181
C         41.18182        25.05725         0.27287
C         42.54575        27.22791        -0.21819
C         41.30598        26.58566         0.30471
C         42.41121        28.53561        -0.58884
C         41.45675        29.46850        -0.04997
C         42.89509        31.57883        -0.27997
C         41.58038        30.85474        -0.20651
C         42.91025        33.07650        -0.17342
C         41.63129        33.82076        -0.36360
C         42.85040        35.84811         0.30031
C         41.63561        35.17412        -0.24207
C         42.81207        37.37529         0.38675
C         41.70822        38.12044        -0.25271
C         43.08369        40.22024        -0.18767
C         41.98536        39.45715        -0.62226
C         43.22685        41.62026        -0.47500
C         41.17557        42.65094        -0.50082
C         42.71584        44.54111         0.42574
C         41.34752        43.90591         0.24208
C         42.64319        46.06020         0.43512
C         41.29845        46.77204         0.58066
C         42.59723        48.78738         0.78881
C         41.31358        48.26579         0.91413
C         43.57334        25.07779        -0.31292
C         45.22536        27.23882        -0.26998
C         43.89246        26.52433        -0.21049
C         45.48740        28.74761        -0.54796
C         44.34534        29.61758        -0.86251
C         45.39602        31.60487         0.05064
C         44.21051        30.89447        -0.43205
C         45.48064        33.00191        -0.54547
C         44.16548        33.88696        -0.54336
C         45.37687        35.92976         0.33695
C         44.17096        35.20854         0.20049
C         45.40163        37.35261         0.54896
C         44.12259        38.07767         0.66024
C         45.49555        40.30512         0.61931
C         44.17125        39.58297         0.57796
C         45.46490        41.79432         0.51602
C         44.19226        42.43529         0.05577
C         45.28603        44.51729         0.78114
C         44.11260        43.95426        -0.08336
C         45.18818        46.08767         0.95672
C         43.90896        46.82177         0.78400
C         43.71299        48.26271         0.49821
C         47.52851        27.22301         0.40817
C         46.60592        26.66728        -0.20304
C         47.63828        28.59801         0.91912
C         46.62605        29.44754         0.17252
C         47.56269        31.65584         1.26505
C         46.52659        30.90597         0.43876
C         47.82842        33.04780         0.68809
C         46.80774        33.76834        -0.23820
C         47.82605        35.88751         0.35107
C         46.64106        35.22063         0.20044
C         47.87035        37.34237         0.49232
C         46.61999        38.09801         0.44705
C         47.87881        40.17163        -0.21413
C         46.71803        39.51609         0.32719
C         47.82741        41.65457        -0.54157
C         46.67467        42.50585        -0.04310
C         47.82112        44.70900         0.46985
C         46.67350        43.97674         0.28172
C         47.60591        46.09055         0.84927
C         46.51876        46.68083         0.84985
C         50.15343        28.77760         1.67040
C         48.80560        29.31918         1.52341
C         50.20953        31.57025         1.56955
C         48.86683        30.86041         1.55437
C         50.25468        33.08302         1.37528
C         48.99119        33.72055         0.91542
C         50.37346        35.81687         0.15652
C         49.08564        35.09791         0.33562
C         50.33371        37.23364        -0.33907
C         49.17543        38.08027        -0.01403
C         50.05762        39.87914        -1.54732
C         49.01761        39.42119        -0.57288
C         50.17918        41.37351        -1.80150
C         49.10559        42.28127        -1.10811
C         50.67063        44.08056        -1.40078
C         49.56245        43.63786        -0.72336
C         51.22907        29.38777         1.42509
C         52.59041        31.60085         1.15026
C         51.49758        30.75615         1.38007
C         52.63983        32.82657         0.87508
C         51.59332        33.82469         1.12977
C         52.64646        35.65473        -0.44835
C         51.70591        35.28588         0.71128
C         52.49073        36.75556        -1.00788
C         51.38066        37.67399        -1.10800
C         52.47272        39.77470        -2.09157
C         51.29095        38.96233        -1.80444
C         52.48612        40.97266        -2.44422
C         51.53180        41.97800        -2.13908
C         51.46615        43.34369        -2.09892
O         32.17390        40.58663         1.92414
O         49.12059        42.00480        -2.54675
O         40.60161        32.70803        -2.22704
O         35.51354        36.33065         0.79450
O         45.56011        32.49840        -1.87408
O         42.48309        36.54133         1.53854
O         34.02633        34.58681        -2.23960
O         41.10495        40.05558        -1.54708
O         34.01434        44.66860         0.03838
O         31.67795        37.64999         0.66388
O         42.15569        43.81142         1.52265
O         49.83028        35.01268        -0.93944
O         40.17508        35.57831        -2.08442
O         41.90828        46.52251        -0.73038
O         48.83892        37.92176         1.39958
O         40.61431        25.87482        -0.78010
O         38.75512        45.81368         3.00475
O         47.72298        28.79677         2.33304
O         46.70045        29.09106        -1.27014
O         35.57422        40.13641        -1.16558
O         50.20076        39.05756        -2.75039
O         40.24911        29.76380         2.05650
O         44.57785        26.97838         0.99884
O         38.70822        27.41211         3.06000
O         42.98637        32.31735         1.05347
O         34.64490        41.71948         1.80696
O         44.39900        46.46930         2.10402
O         42.23722        42.22345        -1.28495
O         35.81656        32.45811        -2.21391
O         45.59104        41.18564         1.81935
O         43.29785        29.00619        -1.55275
O         34.58260        31.95789         1.19837
O         31.07236        34.25593         0.17565
O         51.00820        33.72189         2.45018
O         43.89649        38.93099         1.84745
O         46.74376        42.08348        -1.44714
O         49.11277        44.25611         0.42544
O         49.49806        31.26584         2.81257
O         36.22373        43.75932        -0.71673
O         37.85131        36.28361        -2.66827
H         38.73747        36.08229        -3.05221
O         37.58464        41.93404        -1.78682
H         37.30547        42.85330        -2.00423
O         45.08580        43.96778         2.07843
H         45.71088        44.37214         2.71442
O         44.31084        44.38675        -1.42750
H         43.81613        43.79554        -2.03407
O         46.94105        31.89108         2.55243
H         47.65741        31.97552         3.22246
O         37.74516        29.85870         2.95915
H         38.51574        29.53242         3.48167
O         36.28405        37.99921        -2.20581
H         36.98347        38.46193        -2.71291
O         52.05876        36.04709         1.84140
H         52.72854        35.56977         2.37214
O         37.86915        32.47359         1.75580
H         37.85460        31.72117         2.39785
O         34.13884        38.18509         1.71159
H         34.49138        37.32811         2.04606
O         39.52787        31.81965        -2.59792
H         38.89914        32.40465        -3.08964
O         37.56744        43.42133         2.61050
H         38.23030        43.76494         3.25108
O         47.51882        33.86632        -1.48551
H         47.03962        33.25292        -2.11424
O         43.98896        34.33794        -1.90218
H         44.53601        33.69426        -2.44915
O         41.41752        27.47763         2.43626
H         41.10354        28.16999         3.05950
O         37.91998        36.92149         0.94460
H         37.93911        37.71637         1.51612
O         34.92754        29.55750         2.58019
H         35.74384        29.51466         3.12975
O         30.94273        30.64573         0.65375
H         30.06307        30.22318         0.58346
