         410
 CSIRO Nanostructure Databank - Neutral Graphene Oxide Data Set
C         27.93363        27.41913        -0.36255
C         27.86500        28.84922        -0.27876
C         26.66641        29.55046        -0.13749
C         27.85089        31.68953         0.20779
C         26.64952        30.94269         0.00490
C         27.82914        33.12274         0.43504
C         26.63853        33.88135         0.43487
C         27.86688        35.98926         0.67054
C         26.65340        35.26236         0.57001
C         27.89857        37.43798         0.77873
C         26.68737        38.22147         0.67993
C         27.87388        40.34285         1.11192
C         26.67600        39.58036         0.74250
C         27.94849        41.81198         0.91308
C         26.78178        42.59048         0.88989
C         28.08964        44.63301         0.76313
C         26.85271        43.98562         0.86440
C         28.18940        46.08318         0.84341
C         30.42864        27.43702        -0.71506
C         29.10089        26.73027        -0.51229
C         30.32900        28.79275        -0.02172
C         29.13819        29.63957        -0.43397
C         30.30386        31.65383         0.58435
C         29.08583        31.00536         0.19947
C         30.26570        33.07684         0.77533
C         29.07012        33.81313         0.61972
C         30.33133        35.96110         0.69615
C         29.08498        35.25693         0.69181
C         30.36015        37.39025         0.70081
C         29.13124        38.10607         0.84150
C         30.45475        40.28766         0.89114
C         29.19259        39.55325         1.11446
C         30.44686        41.68947         0.87778
C         29.22023        42.44431         0.84519
C         30.53579        44.53393         0.44360
C         29.29111        43.86398         0.68654
C         30.45937        45.92636        -0.11300
C         29.33800        46.71381         0.52830
C         32.88147        24.54836        -0.51835
C         31.70691        25.28422        -0.62905
C         32.83272        27.28603         0.17321
C         31.65632        26.64435        -0.29542
C         32.84077        28.71796         0.49402
C         31.54259        29.44823         0.56722
C         32.74335        31.57041         1.19782
C         31.50463        30.91351         0.75974
C         32.78531        33.06609         1.27423
C         31.49556        33.81833         1.09936
C         32.79776        35.90022         0.64289
C         31.55397        35.25217         0.77558
C         32.81722        37.33638         0.43157
C         31.59962        38.07602         0.59526
C         32.86938        40.16742         0.39851
C         31.65052        39.51676         0.63962
C         32.98120        41.60521         0.63434
C         31.71635        42.44323         0.90485
C         33.03271        44.56106         0.38033
C         31.77114        43.88378         0.55726
C         33.02754        46.00918         0.07873
C         31.78142        46.64986        -0.15561
C         32.83836        48.73057        -0.89754
C         31.70928        47.97224        -0.62998
C         35.37643        23.03555        -0.19886
C         35.34291        24.43674        -0.06996
C         34.07776        25.16876        -0.10978
C         35.30690        27.18028         0.65043
C         34.04071        26.53976         0.23977
C         35.30621        28.67797         0.85800
C         34.01832        29.38689         0.70370
C         35.30908        31.57535         0.87594
C         34.04640        30.81918         1.08067
C         35.25928        32.99909         0.89265
C         34.05488        33.76115         0.98667
C         35.25329        35.82149         0.28359
C         34.01962        35.15126         0.72334
C         35.26185        37.29920        -0.10645
C         34.01184        38.02206         0.12282
C         35.25601        40.11162        -0.31609
C         34.05853        39.44497         0.05157
C         35.21003        41.56758        -0.53531
C         34.12603        42.32312         0.11170
C         35.55214        44.22658         0.13254
C         34.20188        43.71004         0.24541
C         35.53358        46.37048        -0.01250
C         34.19450        46.83546        -0.17058
C         35.33358        48.91055        -0.94887
C         34.10865        48.16470        -0.68887
C         35.34880        50.31949        -1.06436
C         37.81933        23.01246        -0.16222
C         36.57673        22.34030        -0.22040
C         37.82057        24.43329        -0.04528
C         36.58107        25.13746         0.05520
C         37.79777        27.27216         0.37709
C         36.59199        26.53779         0.32287
C         37.78878        28.71016         0.55313
C         36.56989        29.42211         0.70071
C         37.79134        31.56166         0.50541
C         36.51441        30.84604         0.69818
C         37.78769        33.05212         0.63390
C         36.52150        33.74750         0.95311
C         37.79335        35.93836         0.31735
C         36.54691        35.24878         0.69956
C         37.77118        37.32303        -0.04492
C         36.54072        38.03063        -0.13828
C         37.74840        40.12786        -0.64197
C         36.52421        39.43431        -0.38056
C         37.71775        41.50548        -1.31135
C         36.43736        42.29041        -1.01980
C         37.71769        44.50011        -1.23120
C         36.59066        43.69307        -0.57654
C         37.84178        46.01561        -0.91953
C         36.63111        46.82718        -0.72699
C         37.78567        48.92598        -1.25694
C         36.57516        48.22252        -1.07491
C         37.79115        50.33008        -1.19389
C         36.54654        51.01097        -1.14016
C         40.31249        20.19708        -0.26411
C         39.11776        20.87376        -0.20960
C         40.29117        23.02926        -0.26853
C         39.07353        22.29790        -0.21307
C         40.28404        24.46053        -0.18936
C         39.05243        25.16334        -0.01827
C         40.28211        27.29700         0.14918
C         39.04437        26.58060         0.16584
C         40.30162        28.70455         0.41142
C         39.05399        29.42076         0.58518
C         40.27485        31.55367         1.00242
C         39.05111        30.81856         0.68473
C         40.30764        33.06244         0.98103
C         39.03221        33.83618         0.90043
C         40.22439        35.93243         0.20749
C         39.01496        35.26255         0.46092
C         40.23896        37.32820        -0.08088
C         39.00597        38.03211        -0.19461
C         40.23543        40.11864        -0.69609
C         38.99091        39.43767        -0.52151
C         40.23625        41.51745        -1.20675
C         38.98977        42.33268        -1.12279
C         40.27157        44.44089        -1.53799
C         39.01743        43.69836        -1.20916
C         40.25398        45.95133        -1.50373
C         38.98923        46.67661        -1.26614
C         40.30490        48.86229        -1.07738
C         39.04785        48.16736        -1.58494
C         40.25083        50.29662        -0.96933
C         39.06972        51.02463        -1.06114
C         40.25709        53.16823        -0.81259
C         39.10486        52.46770        -0.83944
C         42.77587        20.21297        -0.45737
C         41.54498        20.90512        -0.36781
C         42.76289        23.04435        -0.54508
C         41.53539        22.33043        -0.38691
C         42.74497        24.48986        -0.51464
C         41.51441        25.18084        -0.28022
C         42.72532        27.33005        -0.27197
C         41.50280        26.60368        -0.13662
C         42.72279        28.73721        -0.01915
C         41.54787        29.39680         0.38664
C         42.79598        31.63214         0.55212
C         41.60722        30.81312         0.82565
C         42.75269        33.04922         0.44154
C         41.53632        33.74734         0.55533
C         42.77649        35.91221        -0.01054
C         41.46160        35.13943         0.11521
C         42.72481        37.38018         0.00834
C         41.48770        38.04679        -0.18158
C         42.74113        40.13108        -0.54428
C         41.47472        39.45291        -0.47000
C         42.82729        41.50457        -1.07392
C         41.55315        42.21650        -1.38489
C         42.83734        44.45537        -1.08885
C         41.60429        43.72020        -1.52053
C         42.72224        45.90098        -0.77494
C         41.53348        46.69539        -1.22387
C         42.76999        48.81556        -0.72721
C         41.49375        48.15264        -0.90125
C         42.77738        50.28110        -0.90833
C         41.50779        51.04155        -0.58287
C         42.79001        53.16003        -0.60729
C         41.55249        52.47561        -1.15120
C         43.96172        20.91110        -0.60860
C         45.23811        23.03475        -0.99229
C         43.97484        22.31987        -0.67922
C         45.21431        24.55493        -1.03970
C         43.94526        25.23418        -0.67891
C         45.17753        27.37485        -0.88852
C         43.93981        26.62848        -0.55346
C         45.16931        28.86176        -0.73249
C         44.01608        29.44848         0.01122
C         45.24597        31.72862         0.01826
C         44.04714        30.94389         0.31332
C         45.24886        33.09514         0.26362
C         43.99606        33.79910         0.34122
C         45.22740        35.93319         0.49967
C         44.01144        35.19705         0.32241
C         45.18346        37.37888         0.37551
C         43.94487        38.08265         0.10109
C         45.17038        40.24993        -0.07568
C         43.93668        39.49128        -0.16704
C         45.22858        41.62678        -0.27387
C         44.09373        42.31968        -0.89534
C         45.25307        44.52900        -0.46427
C         44.02324        43.80612        -0.80366
C         45.25553        45.93910        -0.40086
C         43.97636        46.66812        -0.40943
C         45.23415        48.84618        -0.40984
C         43.97488        48.14217        -0.56483
C         45.27688        50.26350        -0.42276
C         44.06358        51.04203        -0.75534
C         43.94211        52.49131        -0.43348
C         47.69534        23.13039        -0.74736
C         46.54536        22.40982        -0.73588
C         47.72295        24.57135        -0.87055
C         46.50095        25.28580        -0.90196
C         47.71440        27.42736        -0.74846
C         46.49463        26.69325        -0.86692
C         47.73913        28.85883        -0.65169
C         46.47884        29.60286        -0.75724
C         47.75559        31.72543        -0.06721
C         46.48477        31.07309        -0.40479
C         47.71615        33.07886         0.33314
C         46.49608        33.81081         0.38595
C         47.68894        35.94508         0.92414
C         46.44653        35.21906         0.63741
C         47.65279        37.45612         0.71363
C         46.37811        38.10837         0.36097
C         47.62293        40.14210        -0.18164
C         46.39733        39.51885         0.11339
C         47.80009        41.59722        -0.03517
C         46.45561        42.38141        -0.01014
C         47.71770        44.52184        -0.11485
C         46.49073        43.83655        -0.25906
C         47.69871        45.95805        -0.09206
C         46.46426        46.66315        -0.21966
C         47.64863        48.81249         0.09367
C         46.44296        48.10911        -0.17466
C         47.64561        50.22840         0.09836
C         46.48735        50.93395        -0.16112
C         50.21630        24.62427        -0.94995
C         48.96061        25.29499        -0.85889
C         50.19908        27.44191        -0.72540
C         48.96020        26.71877        -0.77081
C         50.20112        28.86794        -0.57031
C         48.95144        29.57802        -0.50148
C         50.22358        31.68760        -0.10283
C         48.96594        30.99828        -0.22950
C         50.25111        33.07854         0.20757
C         49.00244        33.73507         0.62569
C         50.25579        35.94439         0.49901
C         49.01344        35.22870         0.85830
C         50.20418        37.43341         0.45067
C         48.87610        38.05385         0.16936
C         50.58443        40.40034        -0.44981
C         48.71465        39.26107        -0.45790
C         50.36355        41.77377        -0.14661
C         49.06681        42.38783        -0.17041
C         50.21407        44.52419         0.19443
C         48.99534        43.79647        -0.00191
C         50.19501        45.99392         0.14223
C         48.90515        46.69805         0.12825
C         50.03611        48.76080         0.85177
C         48.87825        48.08619         0.31149
C         51.40059        25.31881        -0.94209
C         52.68276        27.45574        -0.78016
C         51.43547        26.73826        -0.81868
C         52.67566        28.86745        -0.59565
C         51.43443        29.57129        -0.48482
C         52.68767        31.70083        -0.15881
C         51.45071        30.99138        -0.27261
C         52.70187        33.10695         0.08432
C         51.45402        33.80637         0.24539
C         52.74661        35.97016         0.02025
C         51.43380        35.25720         0.33288
C         52.76863        37.44462         0.36276
C         51.49650        38.18877         0.35032
C         52.75706        40.32237         0.57014
C         51.60655        39.64397         0.08278
C         52.72580        41.74233         0.61240
C         51.51781        42.46553         0.32314
C         52.63880        44.58690         0.89763
C         51.44745        43.87933         0.45883
C         52.62734        45.98822         1.07078
C         51.44830        46.76336         0.61593
C         51.21195        48.12652         1.09493
C         55.12584        27.47651        -0.84539
C         53.93815        26.78829        -0.91044
C         55.14331        28.88429        -0.63019
C         53.91304        29.58458        -0.50665
C         55.16590        31.69133        -0.14869
C         53.92791        30.99744        -0.27692
C         55.16170        33.10705         0.14448
C         53.94075        33.78882         0.24563
C         55.21416        35.99132         0.59484
C         53.89963        35.23586         0.69960
C         55.20426        37.38970         0.72484
C         53.94055        38.11980         0.64659
C         55.13003        40.27121         1.14106
C         53.94460        39.57381         0.83204
C         55.09097        41.70544         1.32092
C         53.89433        42.43300         1.04900
C         54.98297        44.54175         1.68757
C         53.83186        43.85503         1.20784
C         54.92373        45.94227         1.88397
C         53.76921        46.64438         1.58314
C         56.36785        29.60023        -0.53152
C         56.37728        30.95645        -0.29323
C         56.38469        33.85033         0.33358
C         56.40589        35.20941         0.54036
C         56.39046        38.16349         0.97668
C         56.35358        39.51244         1.21261
C         56.22897        42.44059         1.77605
C         56.17348        43.80022         1.96371
O         33.40143        30.99769         2.39201
O         41.09563        46.47555        -2.60000
O         40.95816        44.05934        -2.77794
O         32.59995        42.03648         1.98710
O         45.14750        23.76158        -2.27054
O         47.65622        36.87216         2.05200
O         49.69876        39.74982        -1.31192
O         50.79388        38.01220         1.68291
O         28.50328        39.91652         2.36036
O         42.11952        35.34400        -1.19316
O         49.13078        34.30084         1.98307
O         43.76791        41.70433        -2.19070
O         37.78174        32.46409        -0.70626
O         32.05981        33.55092         2.44801
O         39.66237        33.63238         2.19752
O         36.58245        34.70280         2.05451
O         35.78483        45.35767         0.90858
O         40.89189        41.59159        -2.52626
O         30.52335        28.72448         1.40208
O         43.03475        46.18754         0.63280
O         41.00004        31.01278         2.14971
O         35.37507        41.99080        -1.99134
O         46.46231        30.61532        -1.82303
O         44.38322        29.88682         1.35305
O         47.13420        42.00954         1.22120
O         35.29422        27.75607         2.00495
O         43.52324        50.70161        -2.09834
O         35.20567        36.21994        -1.12008
O         44.89220        28.28376        -2.03418
O         51.16278        46.56374        -0.80528
O         41.48424        51.18342         0.86993
H         41.27850        50.30792         1.25941
O         30.07054        45.77135        -1.53008
H         29.20266        45.31350        -1.54240
O         29.28952        29.91622        -1.88524
H         28.46968        30.37053        -2.17691
O         41.61589        52.46164        -2.59189
H         42.41206        51.93168        -2.84332
O         30.61388        27.62156        -2.14502
H         30.01301        28.35283        -2.43152
O         53.58119        35.21132         2.12108
H         54.30136        34.73782         2.58679
O         37.71687        41.22704        -2.73938
H         36.76935        41.13967        -3.00359
O         39.12985        48.24429        -3.04435
H         39.90047        47.68765        -3.31821
O         37.31762        44.53211        -2.63474
H         37.41636        43.62590        -3.00333
O         52.95789        35.86817        -1.41726
H         52.25941        36.38129        -1.87371
H         26.98761        26.86110        -0.27676
H         25.71563        28.99690        -0.12549
H         25.67792        31.44999         0.06384
H         25.66747        33.37876         0.33060
H         25.69195        35.79261         0.57757
H         25.74616        37.70702         0.44221
H         25.75121        40.12278         0.49864
H         25.79849        42.10693         0.96688
H         25.93145        44.58141         0.93039
H         27.31668        46.64369         1.21074
H         29.06394        25.63266        -0.56739
H         29.41530        47.80644         0.62200
H         32.87209        23.48956        -0.80842
H         30.81134        24.78649        -1.02448
H         32.73299        49.74304        -1.30873
H         30.72233        48.40014        -0.85247
H         34.44032        22.46576        -0.26682
H         34.40872        50.88600        -1.01166
H         36.54325        21.24678        -0.30941
H         36.51787        52.10835        -1.15346
H         40.32907        19.09802        -0.24371
H         38.18607        20.29692        -0.14341
H         40.24898        54.25741        -0.65535
H         38.15497        52.99468        -0.67244
H         42.78014        19.11407        -0.43344
H         42.74290        54.23631        -0.37908
H         44.89993        20.34982        -0.71303
H         44.82416        53.01874        -0.04141
H         48.64048        22.59951        -0.56984
H         46.59167        21.33437        -0.51420
H         48.57666        50.78458         0.26349
H         46.52460        52.03078        -0.18931
H         50.24818        23.53187        -1.05287
H         49.92390        49.79585         1.20147
H         52.33729        24.75277        -1.02594
H         51.99312        48.64007         1.67248
H         56.08064        26.94128        -0.94997
H         53.96837        25.70261        -1.07021
H         55.81010        46.47347         2.25894
H         53.75949        47.73511         1.71322
H         57.31539        29.05275        -0.63882
H         57.34378        31.47185        -0.21614
H         57.34585        33.32240         0.27584
H         57.38296        35.70978         0.60800
H         57.36068        37.64952         1.02989
H         57.29725        40.03234         1.42853
H         57.16345        41.91038         2.00491
H         57.05708        44.34081         2.33299
