         349
 CSIRO Nanostructure Databank - Neutral Graphene Oxide Data Set
C          1.29857         1.95168         0.48466
C          1.18839         3.30807         0.33156
C          2.53170         1.25268         0.33296
C          2.32170         4.10808        -0.14731
C          1.19352         6.29642         0.27637
C          1.17500         7.68157         0.31230
C          2.37120         5.59183        -0.02310
C          2.33637         8.43283         0.03099
C          1.18325        10.61077         0.45330
C          1.22196        11.99420         0.74126
C          2.29900         9.88323         0.05026
C          2.40772        12.72451         0.71668
C          1.40725        14.88213         1.40928
C          1.51082        16.25443         1.73715
C          2.52030        14.08845         1.17742
C          2.74539        16.90247         1.79440
C          2.83169        18.35047         1.92698
C          3.71700         1.92950         0.07717
C          3.64725         3.37157        -0.23923
C          4.98254         1.27394        -0.00602
C          4.88293         4.18560        -0.11105
C          3.56851         6.31623        -0.28518
C          3.54624         7.74296        -0.27113
C          4.83986         5.61924        -0.45119
C          4.75800         8.49131        -0.58381
C          3.51700        10.61198        -0.32236
C          3.57986        12.09060         0.09078
C          4.76876         9.86520        -0.58063
C          4.93690        12.65185         0.36359
C          3.88867        14.65581         1.49832
C          3.94494        16.16016         1.56084
C          5.03300        14.07913         0.70513
C          5.18422        16.80659         1.49909
C          4.02495        18.97055         2.03144
C          5.29376        18.16328         2.16058
C          6.16913         1.95324        -0.27667
C          6.19435         3.43810        -0.22458
C          7.40282         1.27474        -0.45079
C          7.33216         4.17722        -0.77191
C          6.02243         6.27323        -0.76697
C          5.95326         7.72651        -1.04641
C          7.27864         5.55767        -0.95898
C          7.26231         8.47378        -1.26733
C          5.96694        10.69197        -1.03559
C          6.13576        11.94237        -0.16747
C          7.27780         9.93379        -1.05670
C          7.35724        12.76079        -0.37903
C          6.21559        14.77861         0.50123
C          6.32926        16.16809         0.94051
C          7.36317        14.12895        -0.09296
C          7.54763        16.88592         0.78374
C          6.53108        18.90934         1.78804
C          7.61994        18.27646         1.22818
C          8.58327         1.95312        -0.76973
C          8.51610         3.38908        -1.14602
C          9.83922         1.31041        -0.71576
C          9.80660         4.14411        -1.37712
C          8.51935         6.29681        -1.22267
C          8.51115         7.70288        -1.22013
C          9.77756         5.60582        -1.23496
C          9.78768         8.43897        -1.16443
C          8.45012        10.66068        -1.12253
C          8.47935        12.09037        -0.94654
C          9.75204         9.95617        -1.19580
C          9.66043        12.86126        -1.29773
C          8.52559        14.98570        -0.57389
C          8.68230        16.29999         0.16403
C          9.84038        14.18898        -0.56832
C          9.91163        16.99574         0.08429
C          8.84997        18.98927         1.05288
C          9.98007        18.36508         0.54806
C         11.06120         1.99446        -0.81463
C         11.14953         3.43919        -1.28508
C         12.27259         1.35581        -0.52117
C         12.10552         4.22179        -0.37189
C         11.02682         6.30116        -1.20665
C         11.01980         7.72181        -1.77697
C         12.20055         5.66964        -0.80975
C         12.38974         8.50154        -1.55249
C         10.98086        10.66926        -1.51770
C         10.98851        12.10170        -1.66480
C         12.19716         9.94083        -1.07965
C         12.30039        12.84918        -1.62163
C         11.02379        15.03216        -1.02632
C         11.10882        16.39356        -0.43550
C         12.29312        14.34859        -1.46316
C         12.32756        17.08363        -0.44304
C         11.22257        19.07540         0.44070
C         12.35854        18.46732        -0.02317
C         13.48141         2.08040        -0.33990
C         13.44617         3.53398        -0.27458
C         14.71963         1.42019        -0.27926
C         14.58503         4.26298        -0.01885
C         13.43468         6.39377        -0.58348
C         13.47705         7.79354        -0.77246
C         14.59285         5.70388        -0.09400
C         14.63905         8.52467        -0.40390
C         13.45195        10.69534        -0.82391
C         13.55069        12.10058        -1.31293
C         14.70316         9.96309        -0.53379
C         14.88705        12.80545        -1.16942
C         13.59259        15.02073        -1.17815
C         13.58550        16.42998        -0.81091
C         14.75931        14.29259        -1.06401
C         14.79315        17.09747        -0.59425
C         13.65454        19.24869        -0.08240
C         14.80537        18.30910         0.32021
C         15.92120         2.12924        -0.03287
C         15.80542         3.53774         0.49838
C         17.16683         1.53622        -0.14896
C         17.08046         4.33435         0.41871
C         15.76788         6.43225         0.25324
C         15.75040         7.83994         0.15987
C         17.02309         5.73540         0.53908
C         16.85985         8.62326         0.72885
C         15.81370        10.70903        -0.14548
C         15.73890        12.23394         0.01503
C         16.92949        10.06676         0.44845
C         17.14102        12.89767        -0.06690
C         16.06674        14.95348        -1.03842
C         16.06358        16.50553        -0.99553
C         17.23391        14.22362        -0.50941
C         17.35816        17.29541        -0.88193
C         16.12473        19.01404         0.45879
C         17.32697        18.49351         0.03633
C         18.38529         2.26971         0.04549
C         18.33059         3.68336         0.37390
C         19.61408         1.66774        -0.18209
C         19.53776         4.41566         0.58938
C         18.22750         6.44599         0.81714
C         18.15467         7.88160         1.10922
C         19.46905         5.80182         0.92135
C         19.38241         8.68153         1.29806
C         18.08604        10.79371         0.80735
C         18.27360        12.16767         0.39323
C         19.12733        10.02256         1.46177
C         19.64626        12.71853        -0.05542
C         18.46040        15.00055        -0.26233
C         18.56415        16.42882        -0.59103
C         19.74887        14.24336        -0.04106
C         19.77894        17.06381        -0.52391
C         18.58494        19.12044         0.22324
C         19.78990        18.51509        -0.26064
C         20.83119         2.40459        -0.06589
C         20.79971         3.75731         0.40618
C         22.05199         1.83059        -0.45172
C         22.02204         4.46257         0.57732
C         20.69100         6.50784         1.43632
C         20.67240         8.01811         1.83939
C         22.01029         5.80557         1.20750
C         22.03950         8.72385         1.50557
C         21.04427        11.03670         1.33905
C         20.93634        12.15435         0.52519
C         22.14805        10.13669         1.28672
C         22.14986        12.71585         0.05422
C         21.02105        14.87632        -0.50645
C         21.03963        16.32746        -0.67873
C         22.14509        14.02196        -0.57090
C         22.16442        17.11380        -0.96738
C         20.96939        19.22649        -0.32721
C         22.15496        18.62911        -1.01274
C         23.25951         2.55885        -0.36225
C         23.23370         3.86653         0.22921
C         24.47454         1.97326        -0.79063
C         24.48805         4.64343         0.32683
C         23.29588         6.55421         1.30935
C         23.25722         8.00148         1.49439
C         24.49192         5.90695         1.10873
C         24.52869         8.68348         1.45018
C         23.37330        10.74674         0.88995
C         23.37676        12.07387         0.36366
C         24.59000        10.05177         1.14233
C         24.63580        12.75624         0.19025
C         23.43053        14.44277        -1.03366
C         23.44322        16.58242        -1.34297
C         24.64022        14.04370        -0.47398
C         24.66649        17.10586        -1.00550
C         23.47862        19.22622        -0.60036
C         24.69606        18.53255        -0.66576
C         25.73420         2.58787        -0.57613
C         25.75905         4.02411        -0.17122
C         26.89322         1.84895        -0.71114
C         27.09797         4.70004         0.10712
C         25.76539         6.40416         1.79082
C         25.76329         7.97118         1.88958
C         27.04784         5.74302         1.22435
C         27.02898         8.86393         2.10222
C         25.83644        10.79307         1.06326
C         25.82570        12.14614         0.57173
C         27.01949        10.20805         1.49875
C         27.06427        13.00079         0.66250
C         25.86645        14.80814        -0.64004
C         25.90941        16.24670        -1.24274
C         27.05114        14.21827        -0.23694
C         27.13806        16.93804        -0.67001
C         25.93354        19.21168        -0.63088
C         27.18385        18.47533        -0.51504
C         28.14737         2.24632        -0.00168
C         28.25235         3.72279         0.29275
C         29.42282         1.66560        -0.56430
C         29.46536         4.19397         0.69068
C         28.23401         6.02078         1.80120
C         28.35078         8.20580         2.22346
C         29.58037         5.41449         1.56162
C         29.51805         8.66286         1.68221
C         28.30900        10.92682         1.37907
C         28.34781        12.20861         0.63591
C         29.59792        10.14024         1.52300
C         29.51226        12.73863         0.12364
C         28.33977        14.79263        -0.55624
C         28.42493        16.22258        -0.81158
C         29.49988        14.03646        -0.51508
C         29.62756        16.87905        -0.75476
C         28.48906        19.08394        -0.71381
C         29.66836        18.33531        -0.81141
C         30.62285         2.22832        -0.30531
C         30.70804         3.51724         0.36347
C         31.86667         4.25975         0.43253
C         30.71039         6.34041         1.12017
C         30.62263         7.85709         0.97497
C         31.82634         5.68089         0.68211
C         31.96000         8.54710         1.13233
C         30.89388        10.77568         1.08614
C         30.84054        12.10727         0.36835
C         32.07304         9.88101         1.06596
C         31.98369        12.60136        -0.43779
C         30.72890        14.65659        -1.16245
C         30.91858        16.08770        -0.59861
C         31.95290        13.78306        -1.07001
C         32.10350        16.82598        -1.16145
C         30.91592        18.95733        -1.07088
C         32.08450        18.18956        -1.29815
O         26.12866         8.51917         3.20280
O         11.41329        15.01345        -2.42542
O          6.36810         8.08919        -2.40118
O         17.14301         8.22591         2.11301
O         28.27468         6.95144         2.85381
O         10.09452        12.69426        -2.65658
O         15.17750        12.55113         1.21973
O         10.01815         9.13862         0.07340
O         23.45439        15.37818        -2.07121
O         27.02876        17.50730         0.62960
O          5.68347         3.92427         1.07995
O         13.12508        12.30148        -2.71136
O         31.16444        12.01790         1.80024
O         10.80163         7.60196        -3.13477
O          5.76017        11.75894         1.23302
O         16.15723        15.77631        -2.25855
O         12.51262        10.38264         0.28595
O          3.32565        11.70894        -1.28897
O          2.88364         3.66366        -1.44334
O         19.07326        14.80923         1.10149
O         24.98423         4.88179        -1.08693
O         20.01778        10.76842         2.22026
O          9.00807         3.66212        -2.51099
O         21.32079         5.74144         2.52137
O         29.04269        10.87050         2.66277
O         20.56788         8.07502         3.27037
H         21.02124         7.27609         3.62764
O         11.50713         4.18203         0.95479
H         12.16745         4.51226         1.60058
O         19.70617        12.35905        -1.47302
H         19.57652        11.39183        -1.56125
O         29.98342         4.88820         2.87116
H         29.76435         5.58455         3.53003
O         12.98054         8.65378        -2.86120
H         12.29664         8.25251        -3.48526
O          5.42578        17.87161         3.60803
H          4.62026        17.37514         3.87076
O          8.25100        15.31694        -1.95893
H          7.40664        15.81169        -1.99870
O         17.57849        17.88784        -2.19619
H         17.35441        17.19630        -2.86003
O         15.54548         3.38918         1.94470
H         16.33773         2.97044         2.34408
O         15.66714        12.48764        -2.34340
H         15.06082        12.56708        -3.11631
O         30.24513         8.05690        -0.44145
H         29.64223         7.32807        -0.70569
O         27.03158        13.58623         2.02142
H         27.43615        12.93884         2.63959
O         30.44342        14.83451        -2.57524
H         30.27479        13.95413        -2.96970
O         28.00376         1.61497         1.33607
H         28.79760         1.86310         1.85851
O          5.70806        11.14363        -2.38690
H          5.68503        10.34957        -2.96416
O          4.13716        14.20655         2.89186
H          5.07576        14.40448         3.10016
O         26.11823        16.12815        -2.66979
H         25.31369        15.69923        -3.03928
O         10.15337        13.84882         0.80385
H          9.37375        13.41337         1.21102
O         11.72802         3.43229        -2.60547
H         10.99243         3.31344        -3.24638
O         13.61967        20.36494         0.79951
H         13.61085        20.00317         1.71159
O         27.47137         5.43050        -1.10544
H         26.63059         5.58734        -1.60024
O         14.45425        17.86165         1.67113
H         15.14380        17.23800         1.98281
O         22.01914        18.99121        -2.44892
H         22.74310        18.53997        -2.93424
O         25.63679         5.92198         3.14779
H         26.05005         6.59834         3.73446
O         31.16757        15.93317         0.82497
H         31.20906        16.82594         1.22676
H          0.41611         1.37813         0.80290
H          0.24369         3.80266         0.59626
H          2.55447         0.16822         0.51132
H          0.26190         5.75062         0.47436
H          0.22911         8.18883         0.54005
H          0.23932        10.08911         0.66216
H          0.30492        12.45585         1.13315
H          0.40058        14.46717         1.25665
H          0.58957        16.84028         1.86758
H          1.89505        18.92832         1.91313
H          5.00571         0.17664         0.07713
H          4.08326        20.06390         2.13944
H          7.43688         0.18626        -0.29226
H          6.61408        19.96360         2.09321
H          9.86108         0.24902        -0.42165
H          8.90286        20.04016         1.37343
H         12.28565         0.26414        -0.37716
H         11.26542        20.12588         0.76449
H         14.76732         0.34238        -0.49752
H         13.82415        19.63379        -1.12098
H         17.23839         0.48069        -0.45342
H         16.11418        19.94446         1.04846
H         19.65702         0.61524        -0.49841
H         18.63702        20.11190         0.69818
H         22.06760         0.80706        -0.85340
H         20.99911        20.28587        -0.03160
H         24.45474         0.93946        -1.16658
H         23.50594        20.31538        -0.44384
H         26.81052         0.79949        -1.03556
H         25.95279        20.31096        -0.64933
H         29.36105         0.69951        -1.08770
H         28.52169        20.15958        -0.94452
H         31.55273         1.75877        -0.66067
H         32.81674         3.82199         0.09299
H         32.72654         6.24007         0.38809
H         32.87198         7.94303         1.23132
H         33.06151        10.35715         1.14568
H         32.90944        12.00629        -0.42957
H         32.84015        14.11706        -1.63006
H         33.04473        16.27671        -1.30795
H         30.96472        20.05275        -1.14563
H         33.00327        18.71512        -1.59868
