         661
 CSIRO Nanostructure Databank - Neutral Graphene Oxide Data Set
C          6.49994        33.02493        -0.89949
C          6.66461        34.17069        -0.17988
C          8.80936        28.61130        -1.28014
C          8.70231        29.88957        -0.78882
C          7.64638        30.77413        -1.28907
C          8.55603        32.26936         1.21134
C          7.14976        31.78869        -0.52698
C          8.51753        33.65505         1.62451
C          7.54788        34.52733         0.94307
C          8.44965        36.43553         2.24263
C          7.65098        35.88263         1.15794
C          8.54984        37.90818         2.38315
C         11.24282        24.33018        -1.97722
C         11.26772        25.71171        -1.63256
C         10.05554        26.49315        -1.61254
C         11.26332        28.52575        -0.86423
C         10.01177        27.81509        -1.21305
C         11.18346        29.81808        -0.09805
C          9.85105        30.50559        -0.02169
C         10.87709        31.98058         1.83090
C          9.71566        31.56340         1.02094
C         10.75343        33.28104         2.63968
C          9.59288        34.16527         2.35784
C         10.63715        36.14170         3.83088
C          9.51198        35.53946         2.90781
C         10.74846        37.67951         3.65127
C          9.64995        38.43355         2.94096
C         11.00350        40.52413         3.67641
C          9.81928        39.57445         3.90421
C         10.90064        41.82049         2.91710
C         13.54171        19.97152        -2.50201
C         13.57044        21.34928        -2.20022
C         12.41335        22.16444        -2.29198
C         13.70854        24.24695        -1.84288
C         12.41248        23.55281        -2.03347
C         13.70578        25.59025        -1.22785
C         12.48847        26.30864        -1.21745
C         13.66302        28.17967        -0.00096
C         12.53019        27.72843        -0.82779
C         13.48141        29.27610         1.03255
C         12.27138        30.17510         0.85997
C         13.38163        31.81394         2.36228
C         12.18433        31.29698         1.63371
C         13.32834        33.17354         3.01822
C         12.00880        33.90640         3.20681
C         13.33933        36.04623         3.71150
C         11.99634        35.33708         3.67251
C         13.37174        37.53430         3.50982
C         12.09134        38.22965         3.19733
C         13.43154        40.42306         3.06156
C         12.14366        39.71002         3.08564
C         13.38945        41.79756         2.85837
C         12.10319        42.48229         2.65802
C         13.37111        44.58000         2.20851
C         12.15667        43.83447         2.23570
C         13.35103        45.93334         1.90741
C         15.92346        15.65048        -3.05622
C         15.90833        17.00680        -2.70515
C         14.70932        17.80378        -2.75145
C         15.84402        19.67292        -1.54476
C         14.67837        19.13458        -2.34394
C         15.96111        21.18067        -1.61328
C         14.85947        21.94686        -1.84103
C         16.13241        24.01315        -1.06704
C         14.97198        23.42680        -1.76926
C         16.09934        25.36245        -0.61796
C         14.88458        26.15507        -0.70413
C         15.98651        27.88787         0.81472
C         14.81116        27.43259        -0.01918
C         16.01772        29.40198         0.98433
C         14.74177        30.07263         1.28829
C         15.92148        31.93669         2.43049
C         14.70996        31.26590         1.95831
C         15.83832        33.21364         3.00715
C         14.59954        33.94157         3.14391
C         15.84931        36.06072         3.39666
C         14.59933        35.30507         3.43031
C         15.85710        37.52906         3.29674
C         14.64553        38.24982         3.24160
C         15.88065        40.37437         3.15374
C         14.65444        39.66620         3.13111
C         15.85546        41.84377         3.12648
C         14.61151        42.54498         2.78882
C         15.89582        44.61699         2.30970
C         14.64466        43.91133         2.50485
C         15.86033        46.04367         2.12619
C         14.53786        46.79452         2.19469
C         15.71808        48.77728         1.17236
C         14.56287        48.05587         1.39127
C         15.68798        49.89248         0.29370
C         18.18623        11.22179        -3.28636
C         18.28677        12.72693        -3.19929
C         17.12653        13.47556        -3.25525
C         18.37165        15.53808        -2.82197
C         17.13092        14.89277        -3.05649
C         18.38394        16.93698        -2.48082
C         17.14966        17.63885        -2.33404
C         18.35009        19.55481        -1.42630
C         17.15289        18.96224        -1.81531
C         18.29089        20.88347        -0.71301
C         17.32361        21.82335        -1.47354
C         18.41288        23.76162        -0.25057
C         17.27786        23.21491        -0.86123
C         18.42757        25.13614         0.14059
C         17.26219        25.91364        -0.03041
C         18.49861        27.88299         0.96649
C         17.29847        27.40425         0.19629
C         18.45992        29.13100         1.80610
C         17.27442        30.02143         1.50342
C         18.41353        31.85289         2.65643
C         17.20525        31.28971         2.26000
C         18.41457        33.17887         3.28430
C         17.06892        33.89227         3.45740
C         18.33966        36.05969         3.27693
C         17.04545        35.36757         3.45587
C         18.35406        37.54058         3.11610
C         17.07536        38.25611         3.21191
C         18.36804        40.38227         3.01235
C         17.10088        39.66854         3.16956
C         18.38249        41.73100         2.74957
C         17.16977        42.56521         2.82264
C         18.24089        44.27199         1.34724
C         17.11127        43.88055         2.15705
C         18.14299        45.47677         0.39801
C         16.99270        46.84138         2.19390
C         18.30190        48.78395         1.06699
C         17.02017        48.23223         1.66134
C         18.21486        50.23999         0.37447
C         16.83347        50.56380        -0.18835
C         17.89625        52.35692        -1.58639
C         16.69703        51.59343        -1.10601
C         17.70142        53.27776        -2.76309
C         20.64956         6.92449        -3.62856
C         20.68361         8.35398        -3.59218
C         19.48936         9.12041        -3.55505
C         20.75099        11.19435        -3.29087
C         19.51216        10.50188        -3.39221
C         20.78359        12.63262        -3.06676
C         19.55584        13.36772        -3.00752
C         20.84371        15.43224        -2.65577
C         19.59038        14.77997        -2.82603
C         20.89314        16.93559        -2.69208
C         19.60827        17.60238        -2.24551
C         20.82172        19.61612        -1.45759
C         19.60144        18.91550        -1.70693
C         20.80164        20.93765        -0.90810
C         19.61888        21.56124        -0.55990
C         20.89831        23.63160         0.13130
C         19.58527        22.89605         0.13678
C         20.94826        25.13043         0.20034
C         19.65331        25.79824         0.51416
C         21.02919        27.89029         0.95163
C         19.67452        27.15547         0.91158
C         20.97578        29.23822         1.65409
C         19.76843        29.90347         1.83773
C         20.91643        31.90739         2.66682
C         19.71579        31.24608         2.37094
C         20.94847        33.26128         3.15829
C         19.65442        34.01958         2.98175
C         20.86407        36.13318         3.49661
C         19.59700        35.35540         3.73459
C         20.87150        37.50587         3.32656
C         19.63477        38.26789         3.23233
C         20.86915        40.33682         2.80356
C         19.62584        39.64009         3.06786
C         20.86644        41.66535         2.38208
C         19.64257        42.52394         2.56319
C         20.56140        43.78428         0.60720
C         19.43187        43.52909         1.43726
C         20.51835        45.81142        -0.00572
C         19.33822        46.45543         0.39693
C         20.75743        48.37099         0.66530
C         19.45135        47.82555         0.76811
C         20.56579        50.22155        -0.35197
C         19.28629        50.50666        -0.67059
C         20.25322        52.09139        -2.37084
C         19.01237        51.34041        -1.91084
C         20.14452        53.21181        -3.14837
C         18.81065        53.75992        -3.44349
C         19.83090        55.32069        -5.09333
C         18.70072        54.74673        -4.45724
C         19.65263        56.25354        -6.12184
C         22.95246         3.99284        -3.22573
C         21.77104         4.73350        -3.41431
C         23.13501         6.79077        -3.59216
C         21.80352         6.14054        -3.54248
C         23.18892         8.29538        -3.56893
C         21.92179         9.04959        -3.50388
C         23.27035        11.12992        -3.37811
C         21.95376        10.44642        -3.37476
C         23.30300        12.61625        -3.10410
C         22.00969        13.31292        -2.90212
C         23.37416        15.44039        -2.66336
C         22.03866        14.70874        -2.65452
C         23.29998        16.79278        -1.98113
C         22.11856        17.48924        -2.01717
C         23.40831        19.60157        -1.48615
C         22.09225        18.94238        -1.78675
C         23.37670        20.95662        -0.85836
C         22.07729        21.64446        -0.63081
C         23.27662        23.48878         0.79343
C         22.04680        22.91897         0.12581
C         23.35436        24.99967         0.72922
C         22.18978        25.68277         0.85519
C         23.43581        27.70365         1.74437
C         22.10455        26.99774         1.58435
C         23.43740        29.13831         2.01692
C         22.22860        29.85193         1.98585
C         23.44563        31.87825         2.84338
C         22.22583        31.35564         2.15440
C         23.37661        33.03529         3.79651
C         22.11545        33.88853         3.54384
C         23.40011        36.12773         3.87581
C         22.10066        35.35875         3.79496
C         23.40087        37.52595         3.36059
C         22.12383        38.23008         3.17514
C         23.39027        40.31999         2.63218
C         22.09372        39.57491         2.84174
C         23.22162        41.53199         1.73271
C         22.03735        42.23037         1.73744
C         23.03435        44.11649         0.36003
C         21.88072        43.40493         0.88290
C         23.00337        45.47703        -0.01775
C         21.83771        46.31915         0.04423
C         23.09973        48.45730        -0.33863
C         21.92161        47.73945         0.18285
C         23.02368        49.66459        -1.01278
C         21.69741        50.29092        -1.28496
C         22.79843        52.21288        -2.50121
C         21.55491        51.40207        -2.26762
C         22.59865        53.21365        -3.60655
C         21.32263        53.76995        -3.81728
C         22.31117        55.35577        -5.39811
C         21.16857        54.84584        -4.73959
C         22.21031        56.55065        -6.24803
C         20.76157        57.01708        -6.67200
C         21.81085        58.22968        -8.54987
C         20.67589        57.75436        -7.92307
C         24.19265         4.59851        -3.07763
C         25.50088         6.66993        -2.82963
C         24.33023         6.02537        -3.14430
C         25.60390         8.15318        -2.59770
C         24.42131         8.95751        -3.09835
C         25.71416        11.00808        -2.72704
C         24.48008        10.33026        -3.06303
C         25.71616        12.40530        -2.40431
C         24.53461        13.20438        -2.54154
C         25.67931        15.16216        -1.63183
C         24.55490        14.59293        -2.20926
C         25.67453        16.54818        -1.04869
C         24.52278        17.40701        -1.49957
C         25.82959        19.39232        -0.81530
C         24.59110        18.75635        -1.24232
C         25.85893        20.71545        -0.40976
C         24.57520        21.38161        -0.09116
C         25.89425        23.44627         0.40441
C         24.56777        22.70925         0.57155
C         25.89919        24.85571         1.02232
C         24.63296        25.65879         1.05614
C         25.96665        27.66992         1.81140
C         24.60905        27.01702         1.64973
C         25.87838        29.04210         2.45610
C         24.68861        29.77327         2.32948
C         25.98038        31.81427         3.07305
C         24.74572        31.28708         2.38464
C         25.98627        33.16518         3.45834
C         24.70490        33.83569         3.81214
C         25.91928        36.02349         3.41625
C         24.70219        35.36499         3.85212
C         25.88331        37.46072         3.16675
C         24.57409        38.12486         2.99000
C         25.73800        40.12085         1.85699
C         24.45572        39.35005         2.10345
C         25.61969        41.27041         0.90803
C         24.33130        42.03341         0.90369
C         25.51989        44.00229         0.02238
C         24.32932        43.43838         0.44230
C         25.49881        45.37325        -0.61935
C         24.30951        46.18751        -0.12263
C         25.55165        48.20398        -1.08355
C         24.37438        47.69513        -0.31052
C         25.38017        49.45082        -1.83144
C         24.15366        50.18117        -1.79391
C         25.14621        51.88062        -3.29993
C         24.04259        51.36249        -2.57033
C         25.00706        53.04165        -4.13635
C         23.73126        53.66683        -4.32649
C         24.73258        55.24076        -5.96381
C         23.58121        54.75050        -5.23700
C         24.56979        56.27822        -6.92431
C         23.32793        56.89624        -7.14473
C         23.11305        57.84119        -8.16805
C         26.91265         8.80037        -3.09356
C         28.11770        10.89667        -2.35485
C         26.92919        10.26761        -2.69284
C         28.13713        12.26603        -1.94167
C         26.91696        12.99555        -1.93626
C         28.18414        15.06961        -1.27933
C         26.86990        14.32399        -1.24262
C         28.23951        16.47647        -1.15599
C         27.01483        17.25807        -1.12196
C         28.30841        19.31984        -0.65052
C         27.05884        18.62394        -0.88273
C         28.30933        20.60027        -0.14095
C         27.07355        21.31869         0.09033
C         28.25401        22.96542         1.55355
C         27.06824        22.55650         0.71540
C         28.21930        24.41691         2.08170
C         26.97700        25.27043         1.98499
C         28.27596        27.32591         2.72621
C         26.91853        26.71044         2.55744
C         28.24898        28.70782         3.33170
C         27.09785        29.63340         2.90446
C         28.38910        31.67151         3.73249
C         27.15213        31.01986         3.19181
C         28.45210        33.17308         3.62586
C         27.22480        33.86174         3.59954
C         28.37424        35.97256         2.87337
C         27.25343        35.38030         3.72217
C         28.32586        37.28431         2.37627
C         27.15219        38.13479         2.68881
C         28.19187        39.94263         1.18307
C         27.08159        39.49517         2.05457
C         28.08093        41.23266         0.52788
C         26.86115        41.95391         0.51887
C         27.96887        43.86894        -0.47970
C         26.78146        43.28078         0.04625
C         28.02566        45.31680        -0.76349
C         26.81210        46.15907        -0.40264
C         27.59025        47.75231        -2.41871
C         26.69787        47.44655        -1.20684
C         27.77337        49.26389        -2.46124
C         26.48245        49.99374        -2.53098
C         27.57454        51.77165        -3.88696
C         26.40642        51.21808        -3.21670
C         27.40654        52.93278        -4.68326
C         26.14328        53.54376        -4.84995
C         25.98179        54.64138        -5.74169
C         29.34562        12.90993        -1.57896
C         30.63147        14.97166        -1.11838
C         29.39474        14.31335        -1.32502
C         30.69685        16.37187        -0.93768
C         29.49343        17.12982        -1.03924
C         30.80449        19.15670        -0.34785
C         29.58930        18.63392        -1.06721
C         30.86090        20.57117        -0.02338
C         29.55918        21.35600         0.08400
C         30.73305        23.18311         1.31292
C         29.55382        22.56231         0.91507
C         30.68227        24.48067         2.00441
C         29.50917        25.10379         2.35885
C         30.72258        27.30529         2.75888
C         29.48055        26.47467         3.07497
C         30.72701        28.71214         2.82078
C         29.57279        29.40154         3.22512
C         31.00732        31.30541         3.84615
C         29.65309        30.74768         3.78003
C         30.97696        33.46831         3.66258
C         29.65985        33.93583         3.40443
C         30.74811        35.83109         2.21516
C         29.58152        35.23442         2.78472
C         30.67154        37.13955         1.64567
C         29.42509        37.85847         1.68416
C         30.45427        39.57209         0.14010
C         29.31743        39.15217         1.05316
C         30.42152        41.02763        -0.27765
C         29.18487        41.76982        -0.18742
C         30.14687        43.42760        -1.77331
C         29.09342        43.07714        -0.73113
C         30.08322        44.87706        -2.32621
C         29.13190        45.81983        -1.61196
C         30.20372        47.72407        -2.82714
C         28.91543        46.94744        -2.59207
C         30.18744        49.04270        -3.25260
C         29.00517        49.89320        -3.06977
C         28.82318        51.14282        -3.79363
C         31.93763        17.02404        -0.63016
C         33.23470        19.06238         0.05616
C         31.99024        18.38735        -0.26319
C         33.27945        20.38537         0.48918
C         31.97242        21.02944         0.88888
C         33.21480        23.17141         1.35281
C         31.99406        22.52590         1.10222
C         33.23963        24.49779         1.86375
C         31.98777        25.09522         2.34839
C         33.27925        27.31458         2.57226
C         31.99702        26.59037         2.69699
C         33.28486        28.70726         2.62120
C         31.99337        29.48722         2.45410
C         33.35797        31.57932         3.12407
C         32.08441        30.82432         3.17137
C         33.38637        33.16429         3.03080
C         32.11790        33.92957         3.00269
C         33.17898        35.81171         1.79106
C         32.01822        35.16769         2.27032
C         33.09716        37.11743         1.23508
C         31.84732        37.76326         1.15938
C         32.96553        39.73863         0.01717
C         31.78184        39.22930         0.80572
C         32.85661        40.94901        -0.65880
C         31.57365        41.61801        -0.75214
C         32.64095        43.36381        -2.28918
C         31.54197        43.05338        -1.24319
C         32.61200        44.85408        -2.53193
C         31.42920        45.55950        -2.54010
C         31.39537        46.95896        -2.81456
C         34.47319        21.11780         0.68450
C         35.67607        23.16738         1.29011
C         34.47131        22.46346         1.11086
C         35.70906        24.51365         1.71107
C         34.46426        25.20221         2.04916
C         35.79808        27.24917         2.70852
C         34.48600        26.55685         2.43123
C         35.76167        28.74175         2.46921
C         34.53421        29.43810         2.57026
C         35.74140        31.57482         2.39592
C         34.54326        30.86323         2.62328
C         35.71620        33.01747         2.17045
C         34.55948        33.75403         2.35605
C         35.61738        35.77389         1.22919
C         34.54211        35.25399         2.14570
C         35.53797        37.05154         0.71694
C         34.29358        37.79134         0.74693
C         35.39887        39.67260        -0.43992
C         34.21599        39.05145         0.13386
C         35.31147        40.92837        -1.02053
C         34.05181        41.60317        -1.18921
C         33.97209        42.82062        -1.83255
C         36.92483        25.21534         1.72683
C         38.16720        27.30470         1.90479
C         36.99340        26.58646         2.06135
C         38.23057        28.72733         2.10219
C         36.97940        29.45135         2.34725
C         38.21877        31.62536         2.18203
C         36.96014        30.86296         2.28074
C         38.13037        32.99669         1.63823
C         36.90983        33.63126         1.60747
C         38.04470        35.65858         0.59569
C         36.75819        34.89474         0.80615
C         37.97176        36.96602         0.16836
C         36.71712        37.67237         0.11197
C         36.64038        38.95352        -0.39783
C         39.41596        29.39874         1.88274
C         40.64938        31.56489         1.36768
C         39.51852        30.85454         1.99960
C         40.56112        32.87050         1.01973
C         39.32816        33.63083         1.11163
C         39.27870        34.94130         0.66649
O         17.97469        49.00386         2.48342
O         28.84171        31.04531         4.96040
O         16.60940        42.52923         4.18662
O         16.91469        30.14907         0.09658
O         22.90084        19.61756        -2.85355
O         33.67472        32.43542         4.25603
O         30.44462        21.46414        -1.10338
O         13.39618        36.95487         4.85990
O         29.25849        45.99305        -0.20508
O          8.20602        35.76164         3.52282
O         26.55397        40.49720         2.99180
O         24.50527        21.49431         1.39259
O         14.61252        24.13027        -3.00577
O         28.79075        46.15770        -3.85810
O         20.86471        49.74565         0.93807
O         20.33679        44.53136        -0.56266
O         17.79443        33.27025         4.58419
O         21.31164        28.11078        -0.40181
O         28.70343        49.89345        -1.56837
O         24.88422        34.54120         5.07248
O         10.37546        38.53608         4.84738
O         27.17609        24.39074         3.13594
O         25.62365        25.78106        -0.06693
O         24.59923        47.07116         0.99414
O         21.57169        57.67902        -5.63171
O         23.37862         7.54380        -4.83220
O         10.47263        31.99715         3.26485
O         12.21067        28.62721        -1.97854
O         31.12443        32.45934         4.62592
O         32.06332        25.53651         3.74640
O         10.88381        30.95524        -0.99157
O         13.29071        31.93594         3.81577
O         18.41853        36.63259         1.93374
O         11.95766        38.86556         1.88354
O         21.38920        50.02152        -2.72905
O         17.20517        45.62728        -0.35774
O         29.41561        44.81785        -3.64474
O         23.45893        12.07842        -4.47543
O         39.13120        31.41600         3.31002
O         11.93247        34.23631         4.63215
O          7.34419        31.68836         0.85812
O         22.65478        35.83533         5.09318
O         26.83307        38.17664         4.11500
O         24.69255        41.07923        -0.21944
O         22.91962        21.95341        -1.82445
O         19.36839        22.61213         1.56851
H         18.66682        21.91390         1.61183
O         17.37578        27.96945        -1.14463
H         18.30877        27.92771        -1.44516
O         21.08279        17.28021        -4.11805
H         21.29188        18.24013        -4.16152
O         31.80813        39.95286         2.07326
H         32.61990        39.69108         2.55637
O         28.20311        22.11196         2.74500
H         27.52588        22.49985         3.34524
O         26.95452        46.44502         0.99634
H         27.88714        46.71556         1.14546
O         18.45095        51.20742         1.42410
H         18.07867        50.83724         2.25994
O         13.23993        28.52576         2.29000
H         13.08235        29.18215         3.00546
O         24.02004        38.78592         0.84383
H         24.03286        39.51006         0.16354
O         10.20741        35.96199         5.17063
H         10.43103        35.04300         5.44371
O         19.86739        43.28823         3.79452
H         18.99438        43.60246         4.11581
O         36.37493        34.40740        -0.54559
H         36.34842        35.19181        -1.13573
O         27.58096        35.69476         5.10956
H         27.45975        36.66969         5.21107
O         18.25107        28.68033         3.18237
H         18.99444        28.08908         3.42917
O         18.12187        46.45908         2.83115
H         18.65040        47.27962         2.99225
O         21.60994        26.65844         2.91488
H         22.17159        25.94060         3.27940
O         21.08631        25.58543        -1.20396
H         21.25644        26.58653        -1.13994
O         25.35042        45.15682        -2.04617
H         25.51524        46.00848        -2.51834
O         23.84777        40.80336         3.91995
H         23.15690        41.38941         4.29377
O         28.02241        28.50389         4.76416
H         27.29623        27.83363         4.83362
O         18.36193        53.21363        -0.50387
H         18.41943        52.66879         0.32151
O         25.42902        16.35800         0.39668
H         25.99735        15.59613         0.68304
O         14.39229        47.19501         3.61624
H         14.35633        46.37173         4.14927
O         24.95590        31.70391         0.97013
H         24.05608        31.75890         0.55337
O         29.84762        42.51130        -2.86331
H         29.10368        42.88928        -3.38333
O         26.00128        23.59117        -1.04525
H         25.72519        24.51165        -1.27945
O         31.78205        43.90515        -0.10133
H         32.60447        43.60653         0.33972
O         17.75633        20.67774         0.62831
H         16.88981        20.19294         0.55049
O         30.36180        38.77108        -1.06972
H         29.61058        39.10492        -1.60271
O         18.57518        50.51041        -3.00850
H         19.35466        49.97628        -3.28684
O         17.32450        10.83586        -4.36851
H         17.74672        11.11327        -5.20730
O         31.86207        29.74347         1.01440
H         32.72037        30.09081         0.69105
O         19.48736        35.15363         5.15441
H         20.34946        34.84389         5.50382
O         34.85512        35.82899         3.46924
H         34.28001        35.38472         4.12931
O         22.26904        31.83945         0.72445
H         21.77195        31.18364         0.18368
O         29.80868        19.02212        -2.47825
H         29.97769        19.99514        -2.46959
O         22.90877        52.99737        -1.25962
H         23.65134        53.62863        -1.36869
O         27.03502         8.68107        -4.50999
H         26.25952         9.10995        -4.92871
O         19.58659        34.34352         1.56954
H         19.89301        33.56690         1.05522
O         36.00999        27.10233         4.15975
H         36.82694        27.59522         4.38842
O         23.24910        32.50822         5.14837
H         23.59968        33.20193         5.75686
O         26.58521        27.94835         0.53146
H         25.92604        28.38961        -0.04412
O         15.85867        27.29326         2.12285
H         14.96841        27.54158         2.47267
O         26.68194        13.97826         0.21975
H         25.98944        13.28341         0.26317
O         15.49869        19.37445        -0.12933
H         15.35238        18.40576        -0.06530
O         29.46726        26.16077         4.50595
H         30.36360        25.80586         4.72017
O         23.63140        15.75166        -4.06588
H         22.84977        16.25982        -4.39360
O         11.44752        40.89509         5.01444
H         11.37370        40.08260         5.56896
O         26.71128        47.44150        -3.54276
H         27.16570        46.79379        -4.13230
O         26.32556        26.59325         3.89034
H         26.75816        25.80955         4.31043
O         17.87939        21.95911        -2.80729
H         17.30500        22.56545        -3.32151
O         25.64446         8.31817        -1.14098
H         24.89323         7.81915        -0.75728
O         22.99655        23.32309         2.23260
H         23.22213        22.38968         2.46033
O         31.61575        20.44931         2.18833
H         32.29540        20.72439         2.83926
O         32.39541        42.69591        -3.55812
H         31.42250        42.54010        -3.64518
H          5.89918        33.06413        -1.82071
H          6.12472        35.04931        -0.57187
H          7.96152        28.19311        -1.84442
H          7.38059        30.69913        -2.35461
H          7.09428        36.58533         0.51990
H          7.67106        38.52608         2.14434
H         10.27272        23.85495        -2.18764
H          9.12003        25.99902        -1.91661
H          8.90089        40.06157         4.30382
H          9.93781        42.33576         2.78369
H         12.62390        19.54068        -2.93124
H         11.45366        21.67679        -2.52305
H         11.21512        44.36820         2.03600
H         12.39499        46.42101         1.66277
H         14.97903        15.14609        -3.30979
H         13.80553        17.35572        -3.19305
H         13.62413        48.41252         0.94061
H         14.70538        50.20529        -0.09143
H         17.67734        10.86027        -2.34778
H         16.16746        12.96337        -3.42279
H         15.68945        51.86447        -1.46033
H         16.70011        53.67353        -2.99510
H         19.66793         6.42724        -3.63684
H         18.51953         8.60856        -3.63808
H         17.70065        55.12095        -4.72506
H         18.64247        56.42406        -6.52353
H         22.88078         2.89885        -3.14435
H         20.80326         4.21311        -3.44964
H         21.69854        58.84860        -9.45186
H         19.68841        57.89473        -8.38598
H         25.08037         3.98995        -2.85351
H         26.37168         6.06809        -2.52465
H         25.44238        56.60031        -7.51258
H         23.96793        58.16752        -8.77718
H         27.78474         8.27186        -2.63607
H         29.06027        10.32921        -2.36601
H         28.27653        53.34725        -5.21376
H         26.85936        55.00779        -6.29552
H         30.28404        12.33616        -1.59061
H         31.55717        14.37798        -1.08656
H         31.12154        49.50849        -3.60148
H         29.65802        51.51619        -4.40496
H         32.86174        16.42716        -0.62604
H         34.17593        18.52054        -0.12341
H         33.55190        45.38401        -2.75361
H         32.34672        47.47209        -3.02016
H         35.43947        20.63027         0.48312
H         36.62702        22.66210         1.06334
H         36.21628        41.39624        -1.43693
H         34.89158        43.28694        -2.22019
H         37.83919        24.70516         1.38635
H         39.07139        26.79002         1.54450
H         38.88930        37.50316        -0.11727
H         37.54188        39.43146        -0.80998
H         40.30151        28.83540         1.55077
H         41.57923        31.00418         1.18841
H         41.43149        33.37559         0.57420
H         40.20447        35.44558         0.34948
