         344
 CSIRO Nanostructure Databank - Neutral Graphene Oxide Data Set
C          1.34464         3.41874        -1.42797
C          0.18546         4.11459        -1.84444
C          1.08782         6.24660        -0.99288
C          0.08081         5.48033        -1.73653
C          1.05980         7.76005        -1.11607
C          0.05487         8.37464        -0.16345
C          1.24709        10.51867        -0.29828
C          0.15745         9.66858         0.18940
C          1.17868        11.93952        -0.13065
C          0.11754        12.60309         0.49696
C          1.20539        14.79916         0.25576
C          0.08699        13.99750         0.60067
C          1.21642        16.22984         0.52092
C          0.05175        16.96878         0.71265
C          1.26435        19.02770         1.20321
C          0.08145        18.36650         0.97569
C          1.36615        20.45828         1.71863
C          0.09405        21.25454         1.63506
C          1.23688        23.39433         1.15580
C          0.06692        22.59305         1.45545
C          1.21851        24.77765         1.14074
C          0.06730        25.57087         1.49866
C          1.28181        27.68833         1.18120
C          0.08356        26.93682         1.48682
C          1.30530        29.11655         1.22717
C          3.71518         3.45323        -0.80605
C          2.47934         4.09771        -0.94537
C          3.60520         6.33484        -0.22836
C          2.35646         5.52944        -0.58627
C          3.58654         7.76423        -0.76377
C          2.40532         8.43751        -0.93617
C          3.53232        10.65929        -1.35919
C          2.35373         9.89581        -0.89817
C          3.46417        12.12802        -1.21990
C          2.17530        12.80348        -0.85515
C          3.58899        14.91421        -0.41156
C          2.36284        14.18984        -0.27522
C          3.65667        16.28259         0.07838
C          2.48626        16.89938         0.54638
C          3.83173        19.04763         0.94752
C          2.51428        18.26318         1.08706
C          3.72745        20.53048         0.92951
C          2.55904        21.19366         1.12818
C          3.71840        23.44851         1.43468
C          2.52199        22.67755         0.79059
C          3.74432        24.86114         0.90572
C          2.42214        25.51788         0.59994
C          3.67255        27.69599         0.64049
C          2.45550        26.99748         0.86555
C          3.67938        29.12887         0.65705
C          2.45801        29.81334         0.94848
C          6.15213         3.48497        -0.45830
C          4.92311         4.17513        -0.55571
C          6.11830         6.31939        -0.42230
C          4.90066         5.59829        -0.47936
C          6.12956         7.74695        -0.53928
C          4.84472         8.56802        -0.49526
C          6.17911        10.61158        -1.16822
C          4.89694         9.89474        -1.27296
C          6.39487        11.93023        -1.58426
C          4.49214        12.98673        -1.56618
C          6.05325        14.94933        -1.15387
C          4.70337        14.29177        -1.02697
C          6.07100        16.41676        -0.73061
C          4.85965        17.05787        -0.12394
C          6.09285        19.21708        -0.31216
C          4.91025        18.40790         0.19175
C          6.18999        20.64001         0.22034
C          5.02183        21.25782         0.88710
C          6.24563        23.47885         0.80312
C          5.04201        22.72194         1.20587
C          6.19620        24.83879         0.59690
C          4.90972        25.53868         0.64768
C          6.09159        27.68808         0.21538
C          4.89303        26.98175         0.44065
C          6.07545        29.12025         0.13847
C          4.87927        29.81686         0.37782
C          8.59269         3.48804        -0.07263
C          7.37119         4.17545        -0.26886
C          8.58576         6.32134        -0.14624
C          7.36162         5.61289        -0.29620
C          8.58498         7.74081        -0.26026
C          7.35817         8.41196        -0.53721
C          8.68963        10.57916        -0.78996
C          7.39945         9.83345        -0.90323
C          8.61634        12.06595        -0.48688
C          7.43588        12.77054        -1.10157
C          8.57201        14.90447        -0.69577
C          7.36536        14.18757        -1.02664
C          8.56744        16.34856        -0.49364
C          7.35999        17.04618        -0.40766
C          8.61691        19.19736        -0.31349
C          7.37153        18.46405         0.09273
C          8.55265        20.67820        -0.56212
C          7.36232        21.31726         0.13078
C          8.66793        23.47356         0.15793
C          7.53290        22.69426         0.75846
C          8.62320        24.88039         0.07431
C          7.39019        25.58405         0.24774
C          8.53431        27.71146        -0.25982
C          7.34456        26.98576         0.06968
C          8.47679        29.14427        -0.40286
C          7.29281        29.81193        -0.18092
C         11.03430         3.49341         0.32194
C          9.81371         4.18126         0.10796
C         11.04443         6.32921         0.22220
C          9.81655         5.61776         0.06287
C         11.05773         7.76283         0.19473
C          9.82115         8.47394        -0.11007
C         11.21380        10.50622        -0.47932
C          9.86650         9.84526        -0.30516
C         11.17108        12.02995        -0.54744
C          9.90626        12.77728        -0.78725
C         11.05947        14.91186        -0.41991
C          9.84308        14.24593        -0.59282
C         11.09430        16.37210        -0.09251
C          9.79506        17.06990        -0.34614
C         11.08893        19.21132        -0.49185
C          9.81481        18.49719        -0.39997
C         11.07872        20.64129        -0.37589
C          9.86727        21.35470        -0.26912
C         11.10083        23.47929        -0.17777
C          9.87593        22.76557        -0.10801
C         11.08990        24.91562        -0.21067
C          9.81623        25.62139        -0.22499
C         11.02563        27.71700        -0.84338
C          9.76223        27.01280        -0.39671
C         11.01436        29.22266        -0.69115
C          9.69075        29.93617        -0.85831
C         13.48147         3.49772         0.64176
C         12.25961         4.18346         0.46488
C         13.49624         6.33830         0.51730
C         12.26329         5.62555         0.40954
C         13.48743         7.77400         0.53427
C         12.25459         8.46368         0.41998
C         13.54600        10.64884         0.36237
C         12.21082         9.97239         0.55043
C         13.57199        12.04337         0.17802
C         12.26773        12.79251         0.17833
C         13.52136        14.93111        -0.18376
C         12.31434        14.23042        -0.27358
C         13.57419        16.34063        -0.42870
C         12.28208        17.03313        -0.80934
C         13.55183        19.20679        -0.55485
C         12.31318        18.52532        -0.58261
C         13.56089        20.64273        -0.46365
C         12.32730        21.34496        -0.34918
C         13.57209        23.45385        -0.16627
C         12.33641        22.76493        -0.24726
C         13.58989        24.92751         0.16447
C         12.28248        25.61601        -0.14476
C         13.52524        27.86895        -0.19967
C         12.24889        27.08910        -0.19995
C         13.49115        29.29460        -0.61311
C         12.18129        29.92513        -0.65987
C         15.93824         3.49268         0.75307
C         14.72858         4.18370         0.67162
C         15.95862         6.35453         0.69309
C         14.72524         5.63587         0.60663
C         15.95104         7.79313         0.71160
C         14.72702         8.49273         0.61864
C         15.97972        10.64549         0.56635
C         14.74492         9.93137         0.51973
C         15.98561        12.06987         0.48692
C         14.77420        12.75819         0.27553
C         16.02821        14.92110         0.23616
C         14.70010        14.25168         0.48359
C         16.06170        16.26410        -0.45366
C         14.77063        17.04030        -0.39369
C         16.03349        19.16034        -0.50939
C         14.80600        18.47640        -0.51503
C         16.04902        20.62883        -0.86012
C         14.78439        21.36135        -0.47970
C         16.07512        23.51120        -0.06705
C         14.78460        22.75962        -0.30787
C         16.05315        24.94991        -0.53289
C         14.70828        25.64170        -0.61537
C         15.93432        27.82049        -1.02273
C         14.85569        27.12906        -0.17153
C         15.95318        29.30816        -0.75950
C         14.67235        29.97999        -0.77255
C         18.44307         3.51556         1.08006
C         17.23782         4.18475         0.47913
C         18.40215         6.37321         0.95997
C         17.18856         5.66352         0.76777
C         18.41292         7.80622         0.94517
C         17.18979         8.51167         0.79396
C         18.42663        10.66201         0.87790
C         17.19998         9.93826         0.75102
C         18.40537        12.10399         0.87189
C         17.21940        12.79684         0.66413
C         18.48757        14.95404         0.39430
C         17.20605        14.24709         0.45355
C         18.50685        16.36535         0.12054
C         17.29740        17.06927        -0.15807
C         18.52788        19.20358        -0.27414
C         17.28360        18.46681        -0.32500
C         18.53967        20.63913        -0.39826
C         17.31711        21.35709        -0.49052
C         18.53473        23.47539        -0.51289
C         17.32078        22.75593        -0.45197
C         18.52791        24.93219        -0.92267
C         17.21747        25.65320        -0.71087
C         18.43391        27.80615        -0.65680
C         17.24485        27.09997        -0.81188
C         18.40887        29.25951        -0.60428
C         17.15067        29.96572        -0.66104
C         19.56559         4.21845         1.35055
C         20.81751         6.38014         1.33606
C         19.61562         5.65901         1.19209
C         20.84285         7.76466         1.23241
C         19.65218         8.51808         1.03959
C         20.88455        10.71010         0.86801
C         19.65252         9.95109         0.96536
C         20.89954        12.06186         0.88972
C         19.66379        12.85666         1.23643
C         20.88170        15.02160         0.78405
C         19.67566        14.29097         0.73779
C         20.91820        16.37543         0.49667
C         19.73783        17.08516         0.17765
C         20.96103        19.25570        -0.02219
C         19.74268        18.51326        -0.05373
C         20.97519        20.62331        -0.14659
C         19.76891        21.36112        -0.31219
C         20.97387        23.57861        -0.39065
C         19.76517        22.79370        -0.44031
C         20.95294        24.95500        -0.34953
C         19.74953        25.70632        -0.48569
C         20.87615        27.90886        -0.25829
C         19.70206        27.11363        -0.46143
C         20.82270        29.28434        -0.25807
C         19.59187        29.96447        -0.42217
O          3.46192        18.42522         2.21894
O          1.27904         5.77323         0.38989
O          4.17754        10.02834        -2.51764
O          5.32880        21.74468         2.27771
O         11.91793        12.92546         1.57194
O          5.47403        12.51999        -2.44527
O         12.74033        27.69991         1.04380
O          8.29625        10.09977        -2.10753
O         10.78001        12.42851        -1.91029
O          6.01049        16.02121        -2.15478
O         16.17536        15.91781        -1.89976
H         17.05563        15.50248        -2.02879
O          9.71885        31.22359        -0.23799
H          9.86971        31.09729         0.72106
O         17.43598         4.08538        -0.99867
H         16.65810         4.51284        -1.41782
O         12.07582        16.81095        -2.23114
H         12.89920        17.05517        -2.70298
O          2.28031        25.40531        -0.88770
H          2.97184        25.97687        -1.28750
O          1.52034        13.05091        -2.18298
H          2.14455        13.58877        -2.71726
O          4.75063         8.99687         0.90387
H          4.47321         8.19557         1.41710
O          8.46935        12.17114         0.96405
H          9.36030        12.23530         1.37734
O         11.73794        10.28785         1.87863
H         11.81714        11.29089         1.99007
O          3.48600        23.53928         2.85472
H          3.89046        22.73850         3.26161
O         11.17053        27.43963        -2.27275
H         10.32519        27.66032        -2.71606
O         11.31826        16.46773         1.35139
H         11.65649        15.60105         1.67219
O          7.94038        22.44225         2.14823
H          7.15730        22.02582         2.58844
O         15.36642        27.17557         1.16865
H         14.61139        26.98517         1.77212
O          7.34454        18.42194         1.55923
H          8.18214        18.01192         1.86444
O          3.58577         6.51985         1.23406
H          2.63686         6.43076         1.50114
O         14.23437        25.54912        -1.97470
H         14.80118        26.12757        -2.54199
O         11.68756        10.03928        -1.76802
H         11.22014        10.57522        -2.45080
O          1.66992        20.33479         3.14570
H          2.41928        19.69242         3.21923
O         13.83545        25.04981         1.60429
H         13.06852        24.65605         2.07233
O         16.18938        23.59955         1.39958
H         15.45811        24.18888         1.71574
O         15.60080        27.70123        -2.44507
H         16.38391        27.99473        -2.95678
O          2.70557        22.71534        -0.65080
H          2.47181        23.62976        -0.96338
O         14.36260        14.38470         1.91135
H         13.51697        13.86068         2.03660
O          6.06528        19.25413        -1.76397
H          5.18563        19.57102        -2.05673
O         19.67260        12.97293         2.70415
H         19.56154        12.06949         3.06901
O         16.05972        20.64955        -2.34399
H         15.24738        20.19139        -2.64898
O         18.65176        24.88606        -2.40299
H         19.48348        24.40510        -2.60408
O          0.61950         8.04224        -2.47204
H          0.66707         9.01332        -2.60406
O          8.33192        20.85868        -2.00597
H          7.56625        20.27686        -2.24541
H          1.41741         2.33811        -1.61756
H         -0.61275         3.54853        -2.34603
H         -0.74948         6.02205        -2.20911
H         -0.78927         7.76054         0.18169
H         -0.60695        10.11131         0.84276
H         -0.71496        12.03608         0.93595
H         -0.78668        14.46933         1.07088
H         -0.92761        16.47821         0.63294
H         -0.87797        18.89698         1.05004
H         -0.84736        20.73733         1.87127
H         -0.90593        23.10472         1.51145
H         -0.85419        25.05768         1.80835
H         -0.82275        27.49550         1.76290
H          0.37878        29.65588         1.47227
H          3.77723         2.37015        -0.98867
H          2.45722        30.91297         0.96358
H          6.15328         2.38584        -0.49694
H          4.87927        30.91682         0.35408
H          8.59119         2.38835        -0.05054
H          7.27261        30.90868        -0.26678
H         11.02952         2.39375         0.35947
H          9.55545        30.12705        -1.96427
H         13.47811         2.39857         0.69365
H         12.13826        31.02615        -0.68536
H         15.92970         2.39297         0.79484
H         14.65319        31.07140        -0.92134
H         18.42368         2.42258         1.20445
H         17.16793        31.06063        -0.54290
H         20.46908         3.70799         1.71777
H         21.75279         5.83248         1.52247
H         21.80568         8.28322         1.33749
H         21.82784        10.16756         0.70919
H         21.86148        12.58393         0.78569
H         21.81282        14.52387         1.08633
H         21.88184        16.89696         0.56001
H         21.91658        18.73321         0.11521
H         21.93895        21.14776        -0.10129
H         21.94379        23.07089        -0.30277
H         21.90661        25.48141        -0.20101
H         21.84600        27.41585        -0.10811
H         21.74227        29.86752        -0.10887
H         19.56871        31.06295        -0.37982
