         200
 CSIRO Nanostructure Databank - Neutral Graphene Oxide Data Set
C        -11.08560         0.62716        -0.01352
C         -9.88202         1.41352        -0.09343
C         -8.61311         0.69018        -0.30726
C         -7.34897         1.40595        -0.08196
C         -6.14150         0.68087         0.03217
C         -4.89999         1.39309         0.10669
C         -3.65271         0.67983         0.17847
C         -2.41912         1.39659         0.13195
C         -1.20587         0.67539         0.16367
C          0.09849         1.39458        -0.05394
C          1.23910         0.69008         0.64333
C          2.49506         1.45628         0.90813
C          3.78794         0.69651         0.96313
C          5.03859         1.43285         0.73182
C          6.21998         0.76681         0.44458
C          7.48537         1.50785         0.35061
C          8.73211         0.78151         0.13000
C          9.98398         1.52412         0.08262
C         11.19920         0.77075        -0.16333
C         -9.85148         2.79104         0.01734
C         -8.61597         3.53578        -0.01898
C         -7.36238         2.81815        -0.02040
C         -6.12855         3.53116         0.02277
C         -4.89364         2.81085         0.05540
C         -3.64978         3.53232         0.06022
C         -2.41994         2.83228         0.08136
C         -1.17441         3.55505         0.12926
C          0.05060         2.87020         0.22697
C          1.27887         3.57919         0.34522
C          2.51958         2.90066         0.56242
C          3.72052         3.60803         0.57273
C          4.99002         2.90359         0.86697
C          6.27823         3.65793         0.70678
C          7.51301         2.87873         0.48540
C          8.79018         3.66111         0.64651
C         10.00676         2.88902         0.22966
C         -8.59671         4.93376        -0.01107
C         -7.37495         5.66739        -0.02501
C         -6.13127         4.95587         0.00184
C         -4.89621         5.67152         0.00221
C         -3.65932         4.96284         0.03851
C         -2.42770         5.68614         0.05123
C         -1.18794         4.98801         0.11289
C          0.03676         5.71309         0.12249
C          1.28911         4.99798         0.21310
C          2.52213         5.68188         0.11289
C          3.74381         5.00888         0.28200
C          5.00758         5.72307         0.13067
C          6.22831         5.07018         0.26928
C          7.48517         5.74645         0.00704
C          8.68932         5.05622         0.07653
C         -7.35428         7.08519        -0.06329
C         -6.14696         7.80170        -0.08277
C         -4.89887         7.09680        -0.04476
C         -3.66953         7.81497        -0.06248
C         -2.43298         7.11088        -0.00732
C         -1.19650         7.82912        -0.00106
C          0.01857         7.12706         0.08095
C          1.31840         7.87409         0.26929
C          2.47232         7.10887        -0.37067
C          3.77929         7.84418        -0.25337
C          4.98253         7.14481        -0.16163
C          6.23595         7.84954        -0.32004
C          7.43837         7.15094        -0.29241
C         -6.11322         9.23859        -0.14422
C         -4.92827         9.92724        -0.17423
C         -3.66426         9.24682        -0.13490
C         -2.43917         9.94251        -0.18421
C         -1.20035         9.27233        -0.12717
C          0.04034         9.96466        -0.27389
C          1.27306         9.31037        -0.21042
C          2.50866         9.95279        -0.45194
C          3.74389         9.26343        -0.42287
C          4.99780         9.95093        -0.57306
C          6.18627         9.27249        -0.54134
C        -11.08425        -0.74688         0.05236
C         -9.88036        -1.53333         0.05200
C         -8.61078        -0.82689        -0.21421
C         -7.34763        -1.49457         0.13800
C         -6.16725        -0.75233         0.18782
C         -4.90636        -1.42729         0.52423
C         -3.63246        -0.72924         0.29942
C         -2.42106        -1.45688         0.29144
C         -1.19341        -0.73089         0.22656
C          0.06187        -1.44962         0.19650
C          1.28793        -0.77212         0.39532
C          2.49915        -1.46840         0.34349
C          3.77760        -0.79403         0.65266
C          5.02781        -1.40219         0.16606
C          6.19832        -0.65398         0.14771
C          7.44925        -1.28758        -0.30695
C          8.73009        -0.58441        -0.11057
C          9.95300        -1.33440        -0.27900
C         11.18815        -0.58401        -0.30083
C         -9.85115        -2.90615         0.23787
C         -8.61786        -3.64598         0.23671
C         -7.36972        -2.92692         0.27485
C         -6.16218        -3.65202         0.32029
C         -4.89418        -2.94994         0.54014
C         -3.62688        -3.65036         0.29523
C         -2.39922        -2.90635         0.25564
C         -1.17553        -3.57729         0.02503
C          0.06386        -2.85248        -0.02121
C          1.29892        -3.52311        -0.21850
C          2.51073        -2.84206        -0.02885
C          3.77982        -3.54266        -0.13912
C          5.00475        -2.82537        -0.11453
C          6.22512        -3.53652        -0.23759
C          7.47302        -2.79832        -0.46207
C          8.75864        -3.51326        -0.32944
C          9.95396        -2.72943        -0.35421
C         -8.59407        -5.05729         0.23951
C         -7.38833        -5.78735         0.16672
C         -6.14365        -5.06012         0.16857
C         -4.89648        -5.73526         0.05140
C         -3.66409        -5.04322         0.10172
C         -2.36957        -5.80429         0.28354
C         -1.13495        -5.01989        -0.09415
C          0.03228        -5.67427        -0.38271
C          1.30079        -4.93393        -0.74362
C          2.56433        -5.69536        -0.38411
C          3.78741        -4.95991        -0.23732
C          5.02565        -5.66646        -0.17379
C          6.25429        -4.94404        -0.18672
C          7.51630        -5.65048        -0.16350
C          8.74055        -4.89686        -0.19456
C         -7.35798        -7.22356         0.14911
C         -6.17619        -7.92950        -0.03378
C         -4.93182        -7.17313        -0.28028
C         -3.63800        -7.93333        -0.41677
C         -2.36837        -7.21927        -0.22698
C         -1.19646        -7.90300        -0.38969
C          0.04613        -7.13513        -0.59252
C          1.35342        -7.86361        -0.62373
C          2.58985        -7.08495        -0.37918
C          3.81315        -7.80759        -0.20582
C          5.03882        -7.08992        -0.14466
C          6.28803        -7.78677        -0.06795
C          7.50265        -7.05033        -0.07854
C         -6.08832        -9.36237        -0.06074
C         -4.89901       -10.05233        -0.18324
C         -3.62384        -9.40414        -0.29864
C         -2.39957       -10.06400        -0.31494
C         -1.15334        -9.35672        -0.43053
C          0.08929       -10.01039        -0.38935
C          1.34276        -9.32736        -0.38175
C          2.56864        -9.95962        -0.18421
C          3.80420        -9.23612        -0.14264
C          5.05531        -9.90353        -0.01823
C          6.25226        -9.20939         0.00399
O         -2.28042        -5.97594         1.75417
H         -2.33598        -5.08205         2.15683
O          1.58134         7.91576         1.70026
H          0.84701         8.40247         2.12910
O         -4.91343        -2.16444         1.79711
O          0.68539        -7.49410        -1.89520
O          2.16992         7.04514        -1.79997
H          2.92159         6.60455        -2.24850
O         -8.59146        -0.14637        -1.51938
O          1.29759        -4.82779        -2.20731
H          1.15852        -5.74828        -2.54359
O          0.41097         1.27074        -1.48766
H         -0.33758         1.65507        -1.99137
O          8.93087         3.86466         2.11047
H          8.03240         4.04232         2.46762
O          3.87046        -0.28860         2.03438
O          1.54567         1.13611         1.98970
O          5.69396         3.43157         2.05568
O          7.37862        -1.91190        -1.63821
O         -4.35896        -7.44555        -1.62345
H         12.12987        -1.13235        -0.45155
H         12.15004         1.32256        -0.20311
H         10.96526         3.42742         0.16922
H          9.62666         5.60878        -0.09263
H          8.38478         7.68858        -0.45403
H          7.13480         9.81499        -0.66850
H          4.98847        11.04081        -0.72251
H          2.51362        11.03427        -0.66203
H          0.01331        11.03979        -0.51259
H         -2.45092        11.03939        -0.27553
H         -4.93239        11.02604        -0.22805
H         -7.06757         9.78497        -0.17368
H         -8.30784         7.63405        -0.08790
H         -9.54793         5.48724        -0.00913
H        -10.79327         3.34799         0.14007
H        -12.04563         1.16267         0.03888
H        -12.04377        -1.27665         0.15208
H        -10.79580        -3.45769         0.36314
H         -9.54864        -5.60522         0.25050
H         -8.30513        -7.77168         0.26997
H         -7.02284        -9.93415         0.04511
H         -4.92059       -11.15263        -0.17148
H         -2.37597       -11.16220        -0.23823
H          0.10126       -11.10796        -0.29915
H          2.59721       -11.05213        -0.05117
H          5.06413       -11.00203         0.04014
H          7.20046        -9.76191         0.07817
H          8.45684        -7.59727        -0.03663
H          9.69287        -5.44304        -0.11219
H         10.92135        -3.25388        -0.39181
