         324
 CSIRO Nanostructure Databank - Neutral Graphene Oxide Data Set
C          1.29080         3.54361        -0.24162
C          0.11397         4.26274         0.06132
C          1.19554         6.37500        -0.69897
C          0.06466         5.63283        -0.03788
C          1.24043         7.86439        -0.42856
C          0.04599         8.58931        -0.37850
C          1.27324        10.67907        -0.38408
C          0.05533         9.98405        -0.35372
C          1.28608        12.11315        -0.79006
C          0.28158        13.08255        -0.30797
C          1.50591        14.99271        -1.27084
C          0.39994        14.42068        -0.51508
C          1.60772        16.43769        -1.55384
C          0.46022        17.20407        -1.57523
C          1.61473        19.37354        -1.49034
C          0.45713        18.62909        -1.57635
C          1.61679        20.83198        -1.34231
C          0.43371        21.57799        -1.49320
C          1.56658        23.66825        -0.95171
C          0.40138        22.95449        -1.26566
C          1.52678        25.10740        -0.44573
C          0.28887        25.91455        -0.78402
C          1.48285        28.07754        -0.50422
C          0.26073        27.25517        -0.71250
C          1.42684        29.38449         0.17489
C          3.74767         3.54098        -0.48462
C          2.51786         4.24034        -0.44256
C          3.72562         6.38735        -0.45157
C          2.51106         5.66940        -0.49480
C          3.72757         7.82211        -0.37481
C          2.48048         8.55849        -0.38525
C          3.76610        10.79664        -0.26247
C          2.49160         9.97805        -0.37801
C          3.91768        11.95176        -1.31724
C          2.54344        12.67717        -1.38296
C          4.37956        15.07548        -1.63107
C          2.46639        14.10967        -1.69873
C          4.19353        16.43427        -1.33316
C          2.92040        17.12867        -1.71927
C          4.12645        19.37466        -1.09720
C          2.90517        18.66654        -1.62161
C          4.00730        20.79193        -0.64619
C          2.81635        21.53868        -1.03004
C          4.06478        23.65218        -0.66130
C          2.78572        22.95236        -0.89575
C          4.09872        25.15516        -0.63593
C          2.80647        25.87992        -0.74910
C          3.97510        27.98056         0.14164
C          2.80620        27.36290        -0.51669
C          3.86934        29.35346         0.51139
C          2.57137        30.00592         0.55156
C          6.22234         3.54632        -0.46945
C          4.97471         4.23404        -0.50565
C          6.19931         6.35335        -0.32530
C          4.96369         5.66330        -0.45481
C          6.15160         7.75726        -0.07228
C          4.95484         8.51247        -0.17505
C          6.22145        10.65339        -0.11258
C          5.01878         9.95746        -0.17976
C          6.28569        12.07225        -0.42797
C          5.19970        12.78152        -0.92710
C          6.45879        14.93664        -0.45999
C          5.34573        14.23587        -1.03728
C          6.41559        16.35289        -0.34937
C          5.26637        17.08848        -0.70123
C          6.22207        19.15588         0.39785
C          5.29443        18.56828        -0.61969
C          6.07579        20.60469         0.77082
C          5.02898        21.39313         0.06456
C          6.17174        23.60521         0.77766
C          5.18185        22.85644        -0.04805
C          6.34838        25.04792         0.57931
C          5.40018        25.88845        -0.26282
C          6.27130        27.92858         0.98528
C          5.16563        27.27171         0.37213
C          6.26328        29.37145         1.06173
C          5.03987        30.04243         0.84914
C          8.65407         3.37875        -0.22889
C          7.45715         4.20566        -0.42830
C          8.64797         6.43150        -0.15755
C          7.44920         5.65027        -0.36946
C          8.60551         7.70802         0.38514
C          7.33929         8.41154         0.45040
C          8.74952        10.55908         0.42919
C          7.40713         9.96137         0.41649
C          8.85853        11.98867         0.10443
C          7.61458        12.74548        -0.29531
C          8.82151        14.83236         0.31341
C          7.64927        14.20740        -0.10071
C          8.88097        16.30425         0.33178
C          7.63944        17.09665         0.02431
C          8.59776        19.10065         1.13192
C          7.52692        18.47721         0.56146
C          8.55877        20.51702         1.58827
C          7.27124        21.28941         1.39723
C          8.55426        23.49110         1.66520
C          7.29273        22.79408         1.43351
C          8.56182        24.88001         1.66754
C          7.41150        25.66863         1.22056
C          8.39791        27.60195         2.25083
C          7.39608        27.11490         1.42103
C          8.63636        29.78993         1.74704
C          7.46751        30.18431         1.10604
C         11.22691         3.28143        -0.23175
C          9.92482         3.75617        -0.60131
C         11.12806         6.33645         0.06920
C          9.95556         5.91678        -0.47713
C         11.14137         7.61009         0.81314
C          9.82226         8.37621         0.87776
C         11.15316        10.51542         0.98692
C          9.87639         9.85212         0.79988
C         11.17276        11.96390         1.02960
C         10.03903        12.69541         0.65064
C         11.18108        14.82299         1.11358
C         10.01738        14.12187         0.70162
C         11.14591        16.25648         1.31991
C          9.96385        16.94853         1.08561
C         11.10304        19.12809         1.79915
C          9.81781        18.34383         1.47538
C         11.06935        20.60996         1.69333
C          9.85491        21.25857         1.66532
C         11.11392        23.47560         1.95232
C          9.80196        22.72390         1.91814
C         11.11251        24.97950         2.00315
C          9.76692        25.58314         2.07079
C         11.38615        28.10219         1.90167
C          9.59544        26.87583         2.48259
C         11.18971        29.48788         1.51722
C          9.95797        30.21256         1.45074
C         13.63870         3.43473        -0.19261
C         12.37948         4.08705        -0.21135
C         13.56196         6.22224         0.52165
C         12.41875         5.63331        -0.30844
C         13.61694         7.69481         0.75579
C         12.40446         8.37942         0.86048
C         13.60176        10.44111         1.60022
C         12.34584         9.78472         1.09626
C         13.60121        11.94135         1.45736
C         12.41696        12.65689         1.31837
C         13.59807        14.84056         1.48849
C         12.40308        14.11293         1.34633
C         13.61763        16.27071         1.47976
C         12.36729        16.99711         1.58015
C         13.59801        19.17191         1.61195
C         12.35735        18.38893         1.66391
C         13.52339        20.62781         1.34900
C         12.34600        21.32135         1.56929
C         13.40921        23.48747         1.02820
C         12.34070        22.77516         1.51607
C         13.29230        24.94064         0.72824
C         12.32200        25.78376         1.51931
C         13.40239        27.89493         0.53014
C         12.32089        27.27406         1.26194
C         13.51175        29.35071         0.67440
C         12.35937        30.09393         1.01833
C         16.09829         3.46557        -0.26214
C         14.86988         4.09584        -0.02080
C         16.10786         6.22315         0.69618
C         14.84902         5.46897         0.54097
C         16.12848         7.59813         0.87654
C         14.88131         8.36689         0.94567
C         16.11322        10.49248         1.26434
C         14.88885         9.75255         1.18551
C         16.14588        11.90391         1.35269
C         14.88528        12.62102         1.67087
C         16.09481        14.82667         1.15307
C         14.88579        14.14061         1.64102
C         16.02660        16.23502         0.96664
C         14.83300        16.95241         1.29019
C         15.95109        19.11079         0.58170
C         14.89017        18.42712         1.35276
C         15.83339        20.52198         0.25658
C         14.77150        21.32161         0.95019
C         15.61919        23.46023        -0.27294
C         14.67793        22.81597         0.68186
C         15.55843        24.81510        -0.54406
C         14.38042        25.60301        -0.04888
C         15.46951        27.59888        -0.84619
C         14.43074        27.08704        -0.06338
C         15.83714        29.59910        -0.08732
C         14.75520        30.05057         0.68557
C         18.55655         3.50995        -0.34730
C         17.33396         4.10167         0.00179
C         18.67565         6.19007         0.71446
C         17.34408         5.42823         0.65615
C         18.61942         7.65616         0.84861
C         17.40813         8.29590         1.00907
C         18.68423        10.57811         1.00384
C         17.37048         9.75056         1.28831
C         18.52004        11.99389         0.68277
C         17.32062        12.66113         1.02612
C         18.37418        14.80577         0.25229
C         17.25719        14.10454         0.83023
C         18.29359        16.21782         0.01702
C         17.13613        16.93351         0.41449
C         17.93595        18.90770        -0.86126
C         17.00367        18.34038         0.11924
C         17.70029        20.31771        -1.34815
C         16.70113        21.13488        -0.62237
C         17.72618        23.24170        -1.65144
C         16.48432        22.55387        -1.12407
C         17.66196        24.64964        -1.89847
C         16.61788        25.48275        -1.30037
C         17.79453        27.78466        -1.57433
C         16.63806        26.90415        -1.30193
C         18.10587        28.96846        -0.80804
C         17.21118        29.64575         0.09522
C         19.77027         4.22709        -0.32457
C         21.02155         6.35767        -0.11556
C         19.84066         5.55553         0.08063
C         21.08340         7.65613         0.26018
C         19.95752         8.38801         0.94858
C         20.73486        10.49478        -0.30898
C         19.82153         9.82918         0.48309
C         20.64918        11.89030        -0.50938
C         19.59232        12.65825         0.00535
C         20.64678        14.82515        -0.66841
C         19.54122        14.09768        -0.15040
C         20.59389        16.18797        -0.86130
C         19.40196        16.92305        -0.59213
C         20.36347        19.12945        -1.32997
C         19.26433        18.27658        -0.97782
C         20.18960        20.42403        -1.71590
C         18.83692        20.96874        -2.13940
C         19.78621        23.08890        -2.95513
C         18.78941        22.48293        -2.16708
C         19.66153        24.41711        -3.33379
C         18.58641        25.16336        -2.84419
C         19.97016        28.05891        -2.74088
C         18.74205        27.42715        -2.55402
C         20.31589        29.10985        -1.88054
C         19.39868        29.54350        -0.93552
O         13.11733        25.14364        -0.72508
O         10.49679        22.99780         3.19047
O         18.38271        26.40559        -3.45136
O          3.05620        17.97981        -2.89680
O          1.53994        12.04299        -2.27149
O         15.40786        28.91992        -1.25903
O         18.14497         5.47381         1.87632
O          8.58537        12.29085        -1.32278
O          6.13742        23.27370         2.20434
O          9.99583         4.89986        -1.43771
O         14.58063        18.93161         2.69664
O          5.20304        23.20615        -1.47532
O          3.48271        14.52519        -2.55305
O         15.34283        22.28043         1.89868
O         12.16243        25.43786         2.91750
O          7.63266        20.75264         2.70149
O          2.34542        28.09773        -1.70245
O          5.53168        19.54319         1.62914
O         13.93877         5.49712         1.72474
O         15.00024        13.41042         2.91017
O          8.41829        28.87509         2.80251
O          7.11875         9.22142         1.64770
O          3.54927        25.56332        -1.95362
O         18.26282        10.19006         2.35217
O         10.24178        18.60762         2.85438
O          8.69755        16.95206        -0.99462
O         10.66098        27.62594         2.99859
O         17.16424        19.18107        -2.11549
O          5.33022        19.21382        -1.93249
O         10.38868         7.71176         2.06227
O         18.71120        20.57939        -3.53629
H         18.15729        19.76025        -3.54279
O         12.72755         5.95293        -1.69226
H         11.98152         5.61068        -2.23345
O         15.64818        22.33517        -2.32451
H         15.58108        23.18805        -2.80570
O         13.56834        10.22284         3.06540
H         12.72994        10.60243         3.40546
O          4.17922        11.41149        -2.61084
H          3.32004        11.32195        -3.08093
O         20.31792         8.43326         2.35815
H         19.61916         8.96302         2.81461
O          1.54322        24.99281         1.01718
H          0.72411        24.53254         1.29758
O          0.92090         6.28302        -2.15849
H          0.89494         5.32735        -2.38091
O          3.65963        11.51718         1.00800
H          3.72919        10.86239         1.73469
O          6.09881        26.16067        -1.50486
H          5.41242        26.22271        -2.20963
H          1.29877         2.44697        -0.17643
H         -0.77051         3.70984         0.41098
H         -0.86487         6.16208         0.21365
H         -0.91897         8.06689        -0.42346
H         -0.89222        10.53987        -0.37898
H         -0.54487        12.70061         0.30875
H         -0.35927        15.09829        -0.09881
H         -0.51560        16.70127        -1.51908
H         -0.52239        19.12556        -1.54093
H         -0.50379        21.07303        -1.76095
H         -0.56412        23.47232        -1.34581
H         -0.65311        25.37693        -0.96999
H         -0.68859        27.79009        -0.87495
H          0.44881        29.86506         0.32450
H          3.74468         2.44132        -0.45236
H          2.52733        31.01392         0.99046
H          6.20716         2.44615        -0.45652
H          5.00234        31.13385         0.97939
H          8.51058         2.42559         0.30201
H          7.47142        31.09133         0.48107
H         11.34498         2.22069         0.04293
H         10.01843        31.13298         0.84532
H         13.65913         2.34930        -0.37973
H         12.38752        31.18676         0.90329
H         16.10571         2.45207        -0.69119
H         14.84819        30.93852         1.32734
H         18.55036         2.49178        -0.76277
H         17.63950        30.29964         0.86798
H         20.67365         3.74772        -0.72978
H         21.89958         5.87713        -0.57408
H         22.03772         8.19241         0.15768
H         21.58860         9.95962        -0.74691
H         21.44735        12.37246        -1.08823
H         21.57284        14.29496        -0.92794
H         21.46476        16.70398        -1.28765
H         21.38702        18.74668        -1.20046
H         21.07951        21.03525        -1.92644
H         20.59407        22.47538        -3.37432
H         20.35259        24.87066        -4.05531
H         20.64332        27.72950        -3.54206
H         21.28826        29.61077        -1.97983
H         19.64305        30.40825        -0.30249
