         651
 CSIRO Nanostructure Databank - Neutral Graphene Oxide Data Set
C          6.64504        32.67559        -1.66075
C          6.34747        33.91231        -1.18755
C          8.81738        28.25340        -1.29707
C          8.80517        29.61288        -0.97286
C          7.69848        30.45710        -1.37046
C          8.98007        32.42241        -0.71216
C          7.78257        31.82933        -1.28393
C          9.39021        33.71632        -0.94926
C          7.12442        34.66646        -0.17938
C          8.66701        36.57106         0.44036
C          7.57015        35.93926        -0.39784
C          8.82264        38.05852         0.24547
C         11.03964        23.84706        -1.31978
C         11.01454        25.22245        -1.00210
C          9.93035        26.05451        -1.31527
C         11.06972        28.03148        -0.33606
C          9.92503        27.43107        -0.97874
C         11.01646        29.40211         0.07266
C          9.89774        30.17178        -0.22900
C         11.22012        32.20355         0.39630
C          9.79210        31.60169         0.27418
C         11.15194        33.67445         0.72517
C         10.20235        34.38884         0.07186
C         11.18398        36.54090         0.89025
C         10.04708        35.86736         0.23093
C         11.12613        37.99781         1.07823
C          9.98149        38.73810         0.65034
C         11.16763        40.88492         1.08736
C         10.02393        40.17951         0.70266
C         11.18468        42.28187         1.29271
C         13.44555        19.55354        -1.63972
C         13.49249        20.94768        -1.48320
C         12.28651        21.71415        -1.56266
C         13.49290        23.79374        -0.98517
C         12.22383        23.07465        -1.25034
C         13.45687        25.05744        -0.21159
C         12.15445        25.82217        -0.26982
C         13.43452        27.87576         0.40284
C         12.21862        27.26831        -0.05895
C         13.38373        29.18375         0.94318
C         12.11202        29.90068         0.94642
C         13.35311        32.05271         1.78905
C         12.13339        31.40829         1.31098
C         13.29939        33.49606         2.13079
C         11.97761        34.24722         1.85008
C         13.45716        36.48475         2.09330
C         12.17995        35.77234         1.70870
C         13.59388        37.90751         1.72292
C         12.43151        38.62975         1.20500
C         13.61157        40.81403         1.84558
C         12.46324        40.17114         1.18882
C         13.52692        42.18036         2.10059
C         12.35618        42.95296         1.72937
C         13.57804        45.04423         2.27067
C         12.40085        44.35393         1.84969
C         13.66744        46.44652         2.27469
C         15.89286        15.26470        -1.98874
C         15.61884        16.40688        -1.04040
C         14.53187        17.35011        -1.50139
C         15.88364        19.40791        -1.16539
C         14.58815        18.72161        -1.42024
C         15.88766        20.85158        -0.83701
C         14.74330        21.58659        -1.11250
C         15.96249        23.67392        -0.30094
C         14.79376        23.04322        -0.94458
C         15.95806        25.04822         0.02290
C         14.72140        25.77839         0.04035
C         15.93923        27.84901         0.59107
C         14.66790        27.12378         0.39976
C         15.90780        29.25602         1.12119
C         14.57416        29.79033         1.55220
C         15.85554        31.94248         2.34285
C         14.53140        31.25238         2.08427
C         15.84580        33.41040         2.62975
C         14.56843        34.22791         2.57176
C         15.88624        36.39464         2.47746
C         14.68429        35.71301         2.39838
C         15.96183        37.84284         2.35111
C         14.78592        38.59327         1.99393
C         15.99823        40.67467         2.48811
C         14.80425        40.03504         2.08780
C         15.94332        42.07199         2.93877
C         14.63104        42.86194         2.78862
C         15.88480        44.99592         3.18149
C         14.70955        44.32814         2.75048
C         16.05790        46.40202         2.96928
C         14.88247        47.10739         2.56371
C         16.06614        49.22391         2.13959
C         14.88730        48.51881         2.31939
C         16.01158        50.47552         1.48782
C         18.30115        11.19500        -3.38260
C         18.34459        12.56383        -2.74895
C         17.19015        13.28877        -2.68945
C         18.24695        15.01063        -1.28466
C         17.10071        14.55334        -1.97777
C         18.20570        16.34556        -0.67756
C         16.92353        17.10753        -0.65281
C         18.27273        19.21477        -0.21371
C         17.07889        18.58670        -0.84266
C         18.18991        20.63778         0.18704
C         17.06523        21.47717        -0.30571
C         18.40061        23.55800         0.14452
C         17.10755        22.86489        -0.08770
C         18.40837        24.99939         0.48137
C         17.18949        25.71344         0.43868
C         18.39640        27.76145         1.09930
C         17.19826        27.09742         0.73221
C         18.37731        29.17874         1.49528
C         17.17633        29.85950         1.60191
C         18.41871        31.98550         2.15471
C         17.12373        31.36635         1.68706
C         18.39284        33.46898         2.23923
C         17.14362        34.16337         2.68907
C         18.43977        36.37070         2.72084
C         17.14794        35.65374         2.73716
C         18.36245        37.78948         3.06247
C         17.16558        38.53834         2.61177
C         18.48377        40.68536         2.84245
C         17.19981        39.94906         2.66808
C         18.49257        42.19275         3.03970
C         17.16008        42.84303         3.21869
C         18.89461        45.17991         3.42657
C         16.96934        44.14060         3.63898
C         18.67693        46.43460         2.83908
C         17.37885        47.21125         3.20537
C         18.60290        49.23212         1.92413
C         17.36711        48.60738         2.51128
C         18.41634        50.19187         0.71479
C         17.09905        50.95834         0.72101
C         17.89223        52.06734        -1.36257
C         16.89984        51.93969        -0.23597
C         17.73053        53.22371        -2.30664
C         20.98353         7.70365        -5.63856
C         20.94119         8.85111        -4.80318
C         19.71307         9.52027        -4.54224
C         20.85343        11.20093        -3.17828
C         19.65623        10.63104        -3.72342
C         20.77745        12.38866        -2.33400
C         19.57596        13.02931        -2.13437
C         20.80673        15.01302        -1.20874
C         19.51591        14.20388        -1.17862
C         20.75357        16.48486        -1.03416
C         19.45880        17.15996        -0.75848
C         20.65106        19.01897         0.60317
C         19.43317        18.51329        -0.13888
C         20.72349        20.52042         0.64972
C         19.48401        21.27972         0.60503
C         20.88193        23.40572         0.85499
C         19.62854        22.74880         0.40856
C         20.90949        24.89063         0.61591
C         19.62839        25.66267         0.73876
C         20.89093        27.82296         1.15956
C         19.62517        27.05119         1.02569
C         20.86034        29.18012         1.75945
C         19.63718        29.85394         1.82397
C         20.89643        31.95323         2.29104
C         19.61967        31.28141         2.10807
C         20.93316        33.43457         2.30987
C         19.66719        34.23950         2.29845
C         20.85552        36.30005         3.13975
C         19.66778        35.66858         2.76232
C         20.89602        37.71735         3.74115
C         19.62432        38.52241         3.46312
C         20.96377        40.60565         3.08743
C         19.72636        39.95636         3.16560
C         21.01580        42.03538         2.99024
C         19.81923        42.83451         3.50122
C         21.05799        44.85139         2.44866
C         19.92279        44.29705         3.09116
C         21.01741        46.21810         2.04889
C         19.79352        46.96213         2.15306
C         21.04980        48.94348         1.65676
C         19.82644        48.37154         1.85829
C         20.90753        50.92490         0.66816
C         19.53677        51.17963         0.30868
C         20.37677        52.50270        -1.57454
C         19.29753        51.93116        -0.83747
C         20.17260        53.33185        -2.68654
C         18.79980        53.71882        -3.03571
C         19.60549        54.86648        -5.07711
C         18.57494        54.53049        -4.19049
C         19.35951        55.48895        -6.30605
C         23.61156         5.67355        -7.35365
C         22.39759         5.93557        -6.75341
C         23.26709         7.41302        -4.97107
C         22.17347         6.98019        -5.77443
C         23.36122         8.66652        -4.39007
C         22.14236         9.39819        -4.23732
C         23.36839        11.32741        -3.19192
C         22.08365        10.59682        -3.47018
C         23.31522        12.37208        -2.10024
C         21.99658        12.84399        -1.53657
C         23.27515        15.00658        -1.05672
C         22.00679        14.35618        -1.32836
C         23.32221        16.45117        -0.76307
C         22.00986        17.24092        -0.71854
C         23.15481        19.04355         0.52559
C         21.96503        18.44895         0.10172
C         23.12394        20.29964         1.26484
C         21.84400        21.12250         1.46612
C         23.27011        23.35530         1.37461
C         21.96183        22.66032         1.23008
C         23.44651        24.85494         1.07393
C         22.21319        25.63513         0.74112
C         23.42340        27.72436         1.66486
C         22.21895        27.10932         1.04684
C         23.34638        29.10515         2.00439
C         22.11928        29.82036         2.06543
C         23.33532        31.92926         2.78379
C         22.09936        31.24222         2.39337
C         23.36512        33.26791         3.09594
C         22.17447        34.09942         2.81135
C         23.36742        36.20705         3.62891
C         22.07653        35.48797         3.35658
C         23.35839        37.62667         3.14205
C         22.14612        38.44073         3.28558
C         23.45502        40.45853         2.76343
C         22.19519        39.80156         3.03350
C         23.48532        41.93164         2.74287
C         22.22156        42.69559         2.68096
C         23.48027        44.72647         1.91184
C         22.26761        44.08286         2.36026
C         23.43283        46.11774         1.52803
C         22.24457        46.82927         1.58429
C         23.23530        48.83436         0.45047
C         22.24221        48.25174         1.22160
C         23.04204        50.05215        -0.46341
C         21.97333        51.10790        -0.17776
C         22.91173        52.64822        -2.00088
C         21.75141        52.18708        -1.16084
C         22.58153        53.27743        -3.29027
C         21.26908        53.69463        -3.53020
C         21.89113        54.19438        -5.91038
C         21.05333        54.62382        -4.70337
C         21.68308        55.11905        -7.07300
C         20.40367        55.69773        -7.27272
C         21.19243        56.63989        -9.38203
C         20.17129        56.45441        -8.44906
C         24.86918         6.31759        -7.09558
C         26.15764         7.84798        -5.49731
C         25.17054         6.88786        -5.86917
C         25.98706         8.76127        -4.44202
C         24.66456         9.13485        -3.82322
C         25.84269        11.21891        -2.82772
C         24.60442        10.45146        -3.09548
C         25.76629        12.39941        -2.12261
C         24.48955        12.97028        -1.70371
C         25.68909        14.92237        -0.60027
C         24.47635        14.28241        -1.03556
C         25.69362        16.22747        -0.06551
C         24.47664        17.00944        -0.04237
C         25.59134        18.83958         1.19939
C         24.40262        18.29888         0.48979
C         25.60146        20.24084         1.66010
C         24.26304        20.69823         1.92237
C         25.63911        23.31250         2.11992
C         24.35515        22.81470         2.16920
C         25.76015        24.73862         1.93649
C         24.62474        25.52973         1.64479
C         25.84246        27.58559         2.26852
C         24.61190        26.95548         1.84352
C         25.86667        29.02656         2.44387
C         24.64660        29.87671         2.11418
C         25.88345        31.82864         3.11375
C         24.55921        31.07090         3.06981
C         25.85815        33.23422         3.68157
C         24.67964        34.03216         3.11718
C         25.91162        36.19055         3.24772
C         24.69129        35.45680         3.76229
C         25.92375        37.54191         2.96197
C         24.65564        38.28629         2.76181
C         25.90430        40.39517         2.30829
C         24.66833        39.76238         2.64828
C         25.96684        41.81303         1.98218
C         24.77786        42.63396         2.32912
C         25.92441        44.63800         1.35502
C         24.67360        43.99870         1.81253
C         25.92467        46.09186         1.01058
C         24.67887        46.94496         1.21348
C         25.64318        48.60428        -0.46632
C         24.38681        47.90461         0.04591
C         25.55477        49.83503        -1.11000
C         24.34200        50.69126        -0.94755
C         25.34229        52.34632        -2.68436
C         24.23386        51.95904        -1.75610
C         25.03262        53.19632        -3.91806
C         23.62741        53.50818        -4.26723
C         24.36622        54.20645        -6.52148
C         23.33432        53.99496        -5.52532
C         24.03721        54.81258        -7.74430
C         22.72626        55.32831        -8.00800
C         22.45884        56.09625        -9.17147
C         27.12901         9.52132        -4.07376
C         28.30315        11.37205        -2.97123
C         27.10907        10.65928        -3.25229
C         28.29493        12.52406        -2.17622
C         27.01505        12.94969        -1.55331
C         28.30031        14.85686        -0.33314
C         26.97209        14.17196        -0.68389
C         28.17040        16.33722        -0.06217
C         26.94227        16.88101         0.26302
C         28.14567        18.97046         1.16574
C         26.92596        18.15570         1.00012
C         28.05387        20.26625         1.70082
C         26.78796        20.93529         1.94720
C         28.11024        23.12728         2.52354
C         26.79553        22.39444         2.41362
C         28.15036        24.61478         2.49819
C         27.01039        25.37534         2.29365
C         28.27172        27.45788         2.73251
C         27.00635        26.81626         2.45384
C         28.25424        28.90296         3.06079
C         27.02079        29.67809         2.82204
C         28.34393        31.77991         3.42715
C         27.04711        31.11254         3.10167
C         28.40343        33.29420         3.53128
C         27.13199        34.04212         3.46586
C         28.40354        36.16782         3.22891
C         27.13245        35.41254         3.32066
C         28.37818        37.55677         2.76661
C         27.14924        38.24970         2.67004
C         28.32745        40.25422         1.85964
C         27.10615        39.61869         2.25411
C         28.18734        41.46076         0.92965
C         27.07820        42.38526         1.39423
C         28.39996        44.51693         0.86060
C         27.02896        43.77362         0.76663
C         28.30975        45.98272         0.32202
C         27.05322        46.62667         0.20496
C         28.01752        48.43865        -1.14360
C         26.89422        47.88384        -0.45064
C         27.88695        49.63541        -1.90499
C         26.65951        50.35409        -1.89187
C         27.59004        51.86811        -3.62084
C         26.54973        51.51625        -2.70352
C         27.32475        52.73148        -4.72736
C         26.04329        53.22776        -4.99902
C         25.69584        53.79639        -6.23855
C         29.43408        13.33443        -2.03656
C         30.53050        15.38049        -1.30395
C         29.42833        14.53479        -1.29699
C         30.55331        16.61300        -0.58625
C         29.36631        17.11590         0.06702
C         30.63904        19.10034         0.84642
C         29.38761        18.39106         0.68953
C         30.60874        20.32056         1.55757
C         29.34527        20.90347         2.17590
C         30.65391        23.17872         2.05467
C         29.35526        22.42556         2.06997
C         30.71560        24.58543         2.49706
C         29.43505        25.25245         2.97776
C         30.78625        27.40745         2.58903
C         29.44533        26.74705         2.77797
C         30.81839        28.88818         2.90635
C         29.57380        29.62220         3.17516
C         30.78944        31.76894         2.89153
C         29.60696        31.09057         3.10328
C         30.80371        33.22421         2.80914
C         29.65804        33.94240         3.09912
C         30.83103        36.06644         2.30970
C         29.71842        35.40724         3.03308
C         30.83821        37.47030         2.30489
C         29.61274        38.21299         2.52544
C         30.87610        40.16360         0.48687
C         29.51235        39.58512         2.14070
C         30.45943        41.40013        -0.15139
C         29.43763        42.15856         0.39065
C         30.45546        44.10649        -0.87503
C         29.47140        43.62735         0.16425
C         30.26261        45.29488        -1.79356
C         29.44095        46.76317        -0.08287
C         30.39643        48.25781        -1.86291
C         29.29092        47.82459        -1.02186
C         30.25296        49.43799        -2.59527
C         29.01399        50.13606        -2.64436
C         28.84212        51.22245        -3.51724
C         31.69341        17.40973        -0.62470
C         33.03254        19.30809        -0.10126
C         31.81106        18.61917         0.10480
C         33.50894        20.31935         0.75925
C         31.79676        21.01549         1.89007
C         33.17595        23.07438         2.05133
C         31.92450        22.41136         2.04556
C         33.18953        24.48864         2.36495
C         31.93266        25.19209         2.64796
C         33.26307        27.36575         2.96482
C         31.95177        26.60787         3.21918
C         33.26685        28.84776         2.74464
C         31.98758        29.58457         2.78066
C         33.18808        31.66495         2.26694
C         32.02387        31.03139         2.66848
C         33.28034        33.16816         2.22914
C         31.95010        33.88807         2.22211
C         32.74374        35.55426         0.58591
C         31.88827        35.21643         1.80451
C         32.80121        36.96442         0.10587
C         32.47006        38.25794         0.75851
C         32.38194        39.49407        -1.35747
C         31.59046        39.17070        -0.09405
C         32.49389        41.00063        -1.52882
C         31.46349        41.86826        -1.09870
C         32.55475        43.77394        -2.21360
C         31.45059        43.20515        -1.50374
C         32.61825        45.19912        -2.41146
C         31.53229        46.03516        -2.09787
C         31.54038        47.43555        -2.16077
C         34.36862        21.37576         0.54067
C         35.59227        23.21439         1.51677
C         34.40678        22.51459         1.44629
C         35.71039        24.41110         2.41686
C         34.39466        25.19837         2.31405
C         35.32316        27.34059         1.61727
C         34.37556        26.63029         2.32802
C         35.55811        28.75651         1.71483
C         34.43096        29.53064         2.15312
C         35.56987        31.58103         1.50249
C         34.40138        30.92323         1.99936
C         35.50409        32.91595         1.06487
C         34.28169        33.67231         1.21758
C         35.22471        35.49567        -0.11526
C         34.12328        34.89484         0.60318
C         35.09416        36.73071        -0.76525
C         33.71193        37.29901        -1.03641
C         34.92532        39.47770        -1.68355
C         33.74685        38.84810        -0.98873
C         34.81638        40.72746        -2.27756
C         33.63838        41.55520        -2.14989
C         33.65350        42.92791        -2.49404
C         37.02974        25.15476         2.29853
C         38.26240        27.25108         1.47586
C         37.20812        26.26663         1.53444
C         38.04672        28.61449         1.23837
C         36.79227        29.34009         1.39137
C         37.94104        31.46730         0.67523
C         36.89051        30.85037         1.56664
C         37.82284        32.74587         0.18008
C         36.61864        33.51974         0.39324
C         37.64785        35.50834        -0.66541
C         36.50404        34.83409        -0.11081
C         37.51844        36.77137        -1.18967
C         36.24229        37.42758        -1.25106
C         36.12953        38.73227        -1.76446
C         39.22578        29.39292         0.90151
C         40.33075        31.40925        -0.01810
C         39.16994        30.71382         0.52041
C         40.22285        32.63787        -0.56130
C         38.89247        33.32855        -0.72566
C         39.00408        34.85068        -0.54003
O         24.64123        51.98359        -0.34970
O         19.32554        23.18946        -0.95971
O         11.11405        36.40748        -0.63978
O         30.71869        40.21243         1.87802
O         33.76409        38.99899         0.51185
O         24.39676        42.50905         3.74772
O         22.53598        35.75314         4.73342
O         29.35602        35.99823         4.33120
O         13.62573        33.75104         3.56633
O         22.89413        17.31285        -1.88043
O         28.85497        29.14387         4.38505
O         33.62081        28.22991         4.08650
O         29.84214        22.95250         0.80408
O         14.41503        30.07886         2.96733
O         22.49995        53.43663        -0.84419
O         32.95076        20.25879         2.06037
O         36.10501        26.62330         0.70991
O         24.12087        21.67684         2.92034
O         14.36805        23.82390        -2.14526
O         17.47658        16.58994         0.60120
O         21.48835        52.80211        -6.34522
O         23.82708        37.63012         1.72347
O         18.17632        49.61428         3.25822
O         32.05155        38.16885         2.11611
O         28.43827        32.44123         4.74658
O         17.97034        44.75188         4.37510
O         19.99580        17.15473        -2.12565
O         18.94951        34.09571         1.01708
O         23.78937        23.85512         0.08335
O         21.89435        34.04961         1.36047
O         18.45585        20.86905         1.63359
O         11.55522        30.42342         2.21796
O         26.40587        45.62513         2.32972
O         24.58754         9.20419        -2.35133
O         30.80141        44.17724         0.56619
O         16.87244        19.03852        -2.22014
O         18.62456        38.16936         4.48958
O         29.25739        45.38522        -2.48031
O         26.14753        17.96398         2.24231
O         12.79042        39.42893        -0.00200
O         24.32826         6.52001        -4.80008
O         15.99629        29.01910        -0.32530
O         25.54914        53.79527        -2.68609
O         26.94130        12.83465        -0.06797
O         18.40621        49.27731        -0.38379
O         12.54816        25.02623         0.92215
O         14.98503        42.22671         4.05581
O         21.69648        27.87309        -0.08474
O         15.91657        32.40130         3.70708
O         18.64614        41.64414         1.70220
O         12.30598        36.34569         3.04499
O         21.68348        25.29767        -0.56515
O         17.19139        34.82293         3.99393
O         21.14486        50.30744         1.88937
O         27.44931        22.58476         3.70898
O         24.37003        30.55015         4.41045
H         24.60164        31.27867         5.03617
O          7.41340        34.02931         0.99443
H          7.19917        33.07456         0.94420
O          8.39850        36.39643         1.85304
H          8.10054        35.46829         1.99300
O         30.67368        46.65446         0.45170
H         30.76411        45.84011         1.00422
O         19.84007        42.72695         4.94358
H         20.63446        43.18936         5.28260
O         20.10702        52.82943        -6.76806
H         20.17159        52.69734        -7.74513
O         28.73899        14.32155         0.94925
H         28.33874        13.42186         1.02533
O         20.99525        37.61756         5.18206
H         20.07735        37.49962         5.52179
O          9.13467        31.60383         1.55692
H          9.71666        31.11120         2.18466
O         24.95887        35.37587         5.17525
H         24.10285        35.22115         5.63667
O         15.07373        15.77098         0.16228
H         15.83061        15.67692         0.79020
O         16.94378        31.81579         0.29556
H         17.68996        31.47038        -0.24070
O         22.50964        49.41735        -1.69954
H         21.60689        49.07814        -1.50596
O         31.82323        38.99144        -2.57275
H         32.14238        38.06297        -2.70547
O          9.05444        34.39775        -2.07277
H          9.46315        35.28821        -2.05056
O         31.05100        27.32519         1.14437
H         30.24757        27.61282         0.66175
O         17.42361        47.46090         4.62213
H         17.94937        48.28346         4.75148
O         11.14259        34.04940         3.00916
H         11.68005        34.32086         3.79001
O         33.23603        36.74198        -2.29108
H         32.78558        35.89313        -2.06208
O         23.62113        12.09939        -4.42938
H         22.86725        12.71329        -4.56041
O         28.76580        44.50573         2.24791
H         29.73759        44.61268         2.32172
O         11.86676        32.07472        -0.90481
H         11.30728        32.52895        -1.57220
O         29.43968        20.62013         3.60249
H         29.15388        19.69563         3.75827
O         35.71425        23.90985         3.79394
H         34.93915        23.31938         3.90738
O         33.87253        33.54182         3.52856
H         33.25827        33.24028         4.23203
O         21.44484        20.99702         2.86174
H         21.25874        20.03872         3.01195
O         27.64358        40.87830        -0.33471
H         26.85395        40.34377        -0.09470
O         17.60666        50.91939        -2.22612
H         17.86740        50.10155        -1.66926
O         23.91770        47.09228        -1.06318
H         23.53283        47.70847        -1.73064
O         19.49573        13.61947         0.19382
H         18.62747        13.17627         0.30995
O         17.43881        11.18482        -4.52696
H         17.81808        11.78384        -5.20196
O         37.36887        31.03934         2.95493
H         37.22853        31.98107         3.19104
O         20.47825        18.53669         1.99920
H         19.59627        18.86349         2.29201
O         39.55631        35.14880         0.75033
H         38.91225        34.87052         1.43366
O         24.93574        47.78456         2.36095
H         25.41011        47.22791         3.02014
O         29.41556        25.05417         4.43162
H         30.18198        25.55661         4.80759
O         25.67604        32.99309         5.10643
H         26.57217        32.78522         5.46763
O         21.87440        12.23246        -0.21923
H         21.05627        12.60685         0.19580
O         24.87528        30.43733         0.78826
H         24.66640        29.74989         0.12113
O         24.98148        34.22078         1.70733
H         24.14151        34.35114         1.21362
O         26.71708        43.57399        -0.63335
H         27.04679        42.68414        -0.90724
O         31.75679        26.51573         4.64129
H         32.27200        27.25333         5.05050
O         38.46260        33.13294        -2.10465
H         38.40488        32.16812        -2.26629
O         32.05121        34.83222        -0.52805
H         32.11068        33.86972        -0.34206
O         21.59138        55.91967        -4.30812
H         21.26732        56.12453        -3.40622
H          5.94551        32.23301        -2.38907
H          5.48489        34.43606        -1.63059
H          7.95848        27.81320        -1.82464
H          6.79321        29.98117        -1.77463
H          7.31535        36.41642        -1.35447
H          7.95342        38.63986        -0.09703
H         10.12133        23.37485        -1.70022
H          9.06179        25.63309        -1.84270
H          9.09178        40.73445         0.52139
H         10.27003        42.86492         1.11253
H         12.48320        19.07444        -1.87456
H         11.35540        21.18325        -1.81206
H         11.51774        44.94445         1.56563
H         12.80053        47.04730         1.96298
H         15.04285        14.84458        -2.54700
H         13.56733        16.87833        -1.74591
H         13.93402        48.99649         2.04561
H         15.02121        50.94006         1.34648
H         17.82591        10.49798        -2.63345
H         16.28583        12.89511        -3.17606
H         15.91746        52.43556        -0.31263
H         16.70773        53.49032        -2.61838
H         20.07940         7.40181        -6.18712
H         18.78102         9.12179        -4.96898
H         17.53559        54.77133        -4.46529
H         18.33486        55.80249        -6.56101
H         23.58818         5.00409        -8.22926
H         21.50545         5.45311        -7.18265
H         20.99886        57.23106       -10.28802
H         19.18083        56.90036        -8.61747
H         25.58387         6.40245        -7.92737
H         27.09840         7.89524        -6.06885
H         24.82836        54.97567        -8.49141
H         23.26239        56.26557        -9.90210
H         28.10159         9.20159        -4.47943
H         29.25116        11.02827        -3.41163
H         28.11663        52.86229        -5.48052
H         26.46658        53.90400        -7.01660
H         30.34992        13.05484        -2.58065
H         31.41638        15.10891        -1.89907
H         31.06899        49.76593        -3.25665
H         29.67060        51.53528        -4.16887
H         32.56570        17.05857        -1.19580
H         33.64503        19.00917        -0.96535
H         33.56289        45.64212        -2.76261
H         32.42319        47.93239        -2.59570
H         35.01674        21.39639        -0.34719
H         36.48022        22.82861         0.99541
H         35.69405        41.14560        -2.79424
H         34.56223        43.35925        -2.93948
H         37.82307        24.82624         2.98456
H         39.30552        26.91297         1.58268
H         38.40408        37.30529        -1.56529
H         37.01640        39.20757        -2.21026
H         40.18264        28.85485         0.81742
H         41.30543        30.89986         0.02726
H         41.10958        33.14129        -0.97476
H         39.70631        35.26739        -1.30250
