         630
 CSIRO Nanostructure Databank - Neutral Graphene Oxide Data Set
C         23.30113        27.92889         1.78037
C         23.24211        29.24259         1.35287
C         23.09002        31.99089         0.27723
C         23.06370        33.31228        -0.14761
C         23.02198        36.07383        -1.14880
C         23.02718        37.47594        -1.38996
C         23.04751        40.38273        -0.91187
C         23.05591        41.72995        -0.81045
C         22.95141        44.61900        -0.52532
C         22.92986        45.96643        -0.25092
C         25.63197        24.98320         1.63340
C         24.52196        25.75237         1.89565
C         25.49690        27.69641         0.75088
C         24.43099        27.12474         1.47810
C         25.49912        29.07718         0.41694
C         24.33166        29.85416         0.68089
C         25.48455        31.88650        -0.16688
C         24.28650        31.24295         0.26315
C         25.46941        33.26394        -0.55065
C         24.23260        33.97436        -0.57820
C         25.44394        35.97683        -1.51703
C         24.19278        35.34455        -1.06545
C         25.46320        37.50403        -1.77155
C         24.18472        38.19913        -1.55578
C         25.43748        40.45515        -1.81832
C         24.15278        39.68131        -1.58013
C         25.47484        41.87131        -1.37267
C         24.22867        42.53492        -1.09378
C         25.38676        44.72686        -0.85921
C         24.16392        43.92552        -0.83842
C         25.35179        46.07004        -0.28356
C         24.14462        46.71518        -0.10282
C         25.26907        48.83171         0.39106
C         24.13851        48.16780         0.08632
C         27.98210        23.34835         0.95304
C         27.91494        24.73482         0.62373
C         26.72755        25.47483         0.86021
C         27.85781        27.50186        -0.25516
C         26.59329        26.82687         0.30939
C         27.90211        28.97797        -0.28366
C         26.70159        29.71550        -0.06113
C         27.92396        31.81666        -0.46619
C         26.70758        31.13802        -0.21598
C         27.90335        33.19742        -0.78817
C         26.70588        33.92302        -0.88299
C         27.91091        36.05993        -1.36757
C         26.73328        35.32718        -1.23813
C         27.94484        37.50976        -1.52076
C         26.74543        38.23372        -1.64838
C         28.02022        40.44909        -1.74194
C         26.74308        39.68952        -2.13196
C         27.96243        41.81451        -1.15970
C         26.70822        42.51200        -1.15616
C         27.91590        44.55006        -0.29755
C         26.73698        43.96491        -0.94659
C         27.78674        45.89961         0.30707
C         26.65155        46.82272        -0.14060
C         27.79695        48.77728         0.93058
C         26.47364        48.02390         0.83217
C         27.82404        50.16799         1.15641
C         30.38122        23.25547         0.49560
C         29.15150        22.63387         0.85830
C         30.37757        24.63809         0.13512
C         29.11907        25.37900         0.12396
C         30.30979        27.42492        -0.67995
C         29.10405        26.73600        -0.20221
C         30.36052        28.89906        -0.70189
C         29.12574        29.63050        -0.53693
C         30.36875        31.73042        -0.75959
C         29.16513        31.07303        -0.57217
C         30.41149        33.21291        -0.54618
C         29.17578        33.85299        -1.12902
C         30.45764        36.05502        -1.14915
C         29.19410        35.33845        -1.37167
C         30.44897        37.47281        -1.21130
C         29.22921        38.17411        -1.44727
C         30.44569        40.34805        -0.91898
C         29.27959        39.65493        -1.50619
C         30.40058        41.69886        -0.61853
C         29.13399        42.43620        -0.68590
C         30.29749        44.40780         0.38691
C         29.06905        43.79667        -0.18982
C         30.30001        45.82058         0.90052
C         29.00894        46.58658         0.87565
C         30.32253        48.78509         0.76624
C         29.00127        48.06399         0.90112
C         30.26399        50.21486         1.25112
C         29.04579        50.83449         1.40655
C         32.82136        20.40209         0.73521
C         31.64074        21.10842         0.68755
C         32.85867        23.20286         0.33290
C         31.61567        22.51969         0.50009
C         32.86249        24.62830         0.05777
C         31.60919        25.28174        -0.13588
C         32.87384        27.43084        -0.66926
C         31.62553        26.65727        -0.65316
C         32.83703        28.82563        -0.91474
C         31.57798        29.54091        -0.92156
C         32.86096        31.74535        -1.08727
C         31.56140        31.00626        -1.29526
C         32.89081        33.15385        -1.07285
C         31.67857        33.90163        -0.96290
C         32.92852        36.02050        -1.00170
C         31.67306        35.31310        -1.03119
C         32.90823        37.46919        -0.92204
C         31.70972        38.16700        -1.04395
C         32.93352        40.30298        -0.48769
C         31.76426        39.66911        -1.19122
C         32.87048        41.70289        -0.19547
C         31.64151        42.37790        -0.27565
C         32.86807        44.53879         0.42504
C         31.60681        43.82125        -0.03200
C         32.78096        45.89468         1.04338
C         31.57660        46.56175         1.07511
C         32.74754        48.75731         1.68236
C         31.47184        48.00812         1.40332
C         32.80624        50.20115         1.41339
C         31.52917        50.97507         1.63391
C         32.72606        52.89960         0.56860
C         31.57554        52.33197         0.98609
C         35.40707        19.08620         1.38148
C         35.32052        20.34256         0.76809
C         34.07620        21.05825         0.59801
C         35.34217        23.18998         0.35725
C         34.06471        22.46229         0.37422
C         35.35370        24.69698         0.14438
C         34.07146        25.35447        -0.11973
C         35.33563        27.42608        -0.74361
C         34.09969        26.73675        -0.50929
C         35.29847        28.81152        -1.07030
C         34.07653        29.51428        -1.10184
C         35.39675        31.74975        -1.41308
C         34.06098        30.97249        -1.39161
C         35.37201        33.18957        -1.15359
C         34.14752        33.88509        -1.11681
C         35.42123        36.08247        -1.19621
C         34.13124        35.31398        -1.02646
C         35.36185        37.45520        -0.56357
C         34.14658        38.15739        -0.59999
C         35.27738        40.22630         0.23290
C         34.09910        39.56835        -0.26825
C         35.27533        41.59165         0.48197
C         34.06803        42.37806         0.29197
C         35.21380        44.33564         1.39882
C         34.05926        43.72130         0.64148
C         35.24383        45.85227         1.32798
C         34.03437        46.54174         1.38403
C         35.31772        48.73398         1.55350
C         34.01989        47.97176         1.74041
C         35.26633        50.15511         1.17798
C         34.01002        50.85021         1.12633
C         35.21375        52.90054         0.42616
C         34.01045        52.24154         0.70297
C         35.24599        54.23041        -0.16888
C         37.86615        19.02994         1.19125
C         36.62978        18.43378         1.54532
C         37.86368        20.32786         0.60373
C         36.56901        20.93822         0.27906
C         37.84750        23.17313        -0.02804
C         36.57527        22.45331        -0.00106
C         37.82704        24.59320        -0.22871
C         36.61026        25.33116        -0.28373
C         37.83507        27.36047        -0.84621
C         36.59601        26.70180        -0.65404
C         37.87340        28.77805        -1.24294
C         36.56766        29.53253        -1.37571
C         37.84124        31.68444        -1.04355
C         36.63631        30.99999        -1.21804
C         37.82588        33.11691        -0.92021
C         36.63179        33.85960        -0.96870
C         37.82892        35.97421        -0.49375
C         36.65223        35.29300        -0.83544
C         37.78477        37.36916        -0.11908
C         36.55326        38.05773        -0.09389
C         37.77443        40.15471         0.54372
C         36.47655        39.38915         0.61028
C         37.75530        41.55913         0.71966
C         36.51912        42.28852         0.80090
C         37.75402        44.38720         1.17325
C         36.52446        43.66240         1.06572
C         37.75329        45.83810         1.25177
C         36.50700        46.55437         1.31846
C         37.74370        48.70213         1.10358
C         36.53368        47.96650         1.25953
C         37.71584        50.11910         1.02279
C         36.48150        50.82351         0.93806
C         37.68983        52.93807         0.46720
C         36.47764        52.24229         0.63629
C         37.66474        54.44665         0.34389
C         36.38883        54.93223        -0.28806
C         40.40010        16.35878         2.04606
C         39.19384        17.03245         1.92165
C         40.33447        19.07595         1.17384
C         39.13363        18.38043         1.44612
C         40.31958        20.39254         0.64860
C         39.06609        21.03835         0.37416
C         40.29633        23.11232        -0.22952
C         39.05509        22.44058         0.00811
C         40.29427        24.53190        -0.48658
C         39.06612        25.26340        -0.45677
C         40.30642        27.37854        -0.77115
C         39.06270        26.66936        -0.68910
C         40.32226        28.80897        -0.84416
C         39.11565        29.54007        -1.00555
C         40.34306        31.64753        -0.81853
C         39.10994        30.95166        -0.98116
C         40.34260        33.08220        -0.62269
C         39.12069        33.87852        -0.99898
C         40.23022        35.90653         0.01520
C         39.07530        35.26507        -0.40295
C         40.22650        37.31331         0.31249
C         39.00966        38.02774         0.25137
C         40.23638        40.14417         0.64701
C         38.99128        39.44892         0.49719
C         40.22367        41.55306         0.78936
C         38.98714        42.26815         0.84275
C         40.24767        44.37038         1.21883
C         38.96650        43.67134         1.06517
C         40.25556        45.87671         1.25652
C         38.96294        46.57898         1.16763
C         40.23463        48.72017         0.94539
C         38.98601        47.98822         1.07268
C         40.23593        50.12715         0.85385
C         38.98922        50.90206         1.19245
C         40.14123        52.93433         0.24950
C         38.94093        52.28010         0.58252
C         40.10397        54.28007        -0.28259
C         38.91833        55.02075        -0.28204
C         40.06483        57.01062        -1.12792
C         38.95987        56.42823        -0.59768
C         42.85676        16.32043         1.86160
C         41.62771        17.00626         1.80875
C         42.87013        19.04644         0.98039
C         41.64126        18.50483         1.66784
C         42.82683        20.36510         0.45364
C         41.55328        21.06535         0.35132
C         42.75902        23.00553        -0.62333
C         41.51442        22.38230        -0.14937
C         42.75474        24.50538        -0.89595
C         41.50357        25.24056        -0.68482
C         42.78524        27.36049        -0.76821
C         41.52782        26.65886        -0.73318
C         42.79887        28.77735        -0.72809
C         41.56365        29.50005        -0.75419
C         42.81677        31.60646        -0.58392
C         41.56646        30.92103        -0.71326
C         42.78629        33.07342        -0.51855
C         41.49670        33.74739        -0.30883
C         42.76511        35.86849         0.37840
C         41.45878        35.09833         0.35529
C         42.69499        37.26258         0.70672
C         41.47721        37.98996         0.60913
C         42.69441        40.16917         0.81982
C         41.47394        39.42397         0.69394
C         42.71023        41.55456         0.81120
C         41.47023        42.27563         0.80413
C         42.69318        44.40265         0.41215
C         41.47749        43.66291         0.87021
C         42.68357        45.88316         0.67294
C         41.50225        46.58773         0.88840
C         42.70409        48.72163         0.69767
C         41.47461        48.01233         0.83445
C         42.69400        50.16448         0.63035
C         41.44127        50.84876         0.63346
C         42.61387        52.96524         0.09363
C         41.41101        52.26028         0.35480
C         42.55390        54.33481        -0.36328
C         41.33928        54.91276        -0.68104
C         42.52900        56.93660        -1.60721
C         41.24354        56.16274        -1.52757
C         44.04766        16.96373         1.56776
C         45.32851        18.90822         0.68691
C         44.08226        18.30951         1.08012
C         45.31656        20.22893        -0.05523
C         44.03201        21.01545         0.07204
C         45.26643        23.06286        -0.60937
C         44.05138        22.35273        -0.35783
C         45.24857        24.49552        -0.85145
C         44.03720        25.21897        -0.83410
C         45.25780        27.34775        -0.77840
C         44.02151        26.63832        -0.78951
C         45.26277        28.77250        -0.68704
C         44.04397        29.48605        -0.65440
C         45.29192        31.63343        -0.33468
C         44.03672        30.92179        -0.53418
C         45.31027        33.04648        -0.12172
C         44.05743        33.82162        -0.24182
C         45.25263        35.79331         0.72984
C         43.97293        35.18086         0.32503
C         45.25401        37.26011         1.06475
C         43.93387        37.96853         1.10937
C         45.24880        40.18103         0.92596
C         43.95873        39.46453         1.11867
C         45.24515        41.56343         0.87369
C         43.96884        42.29621         1.22181
C         45.17462        44.42180         0.60350
C         43.98416        43.72979         0.77899
C         45.14162        45.83935         0.37881
C         43.92213        46.57392         0.48673
C         45.18209        48.71113         0.62151
C         43.90681        47.99583         0.55331
C         45.18714        50.22795         0.64358
C         43.89401        50.90583         0.49677
C         45.12660        52.96498        -0.04667
C         43.87662        52.28780         0.18494
C         45.12521        54.41534        -0.38504
C         43.80260        55.12433        -0.51422
C         43.70025        56.43641        -1.19459
C         47.77323        18.94084         0.47011
C         46.56358        18.29767         0.84115
C         47.81999        20.28425         0.12534
C         46.53653        21.07719         0.29629
C         47.73244        23.04165        -0.71781
C         46.52121        22.41548        -0.41489
C         47.74175        24.44000        -1.30654
C         46.48295        25.21602        -0.95333
C         47.74178        27.37506        -0.97014
C         46.47623        26.60921        -0.90417
C         47.71386        28.78815        -0.55046
C         46.51981        29.47932        -0.51715
C         47.75264        31.61685        -0.18751
C         46.50632        30.91585        -0.29881
C         47.76364        33.04475        -0.07418
C         46.51912        33.74280         0.04969
C         47.72008        35.86428         0.47209
C         46.53147        35.15304         0.35558
C         47.71679        37.31126         0.66927
C         46.49578        38.02340         0.82833
C         47.70222        40.15989         0.62432
C         46.47908        39.43880         0.78861
C         47.69836        41.58457         0.56707
C         46.46394        42.30293         0.67706
C         47.67623        44.43098         0.39182
C         46.45186        43.71633         0.58528
C         47.68406        45.84122         0.20892
C         46.39606        46.53283         0.06710
C         47.68675        48.76480         0.24683
C         46.40614        48.04869         0.11701
C         47.65850        50.20646         0.25283
C         46.43959        50.91371         0.28419
C         47.62494        53.14987         0.03867
C         46.36021        52.31415         0.04412
C         47.50216        54.26802        -0.97640
C         46.33179        54.90911        -1.10358
C         50.30736        20.30440        -0.21823
C         49.02118        20.97158        -0.24674
C         50.19116        23.00188        -1.11523
C         48.96187        22.33079        -0.62686
C         50.22673        24.48246        -1.00153
C         49.03910        25.16006        -0.97919
C         50.28356        27.30895        -0.50928
C         49.04392        26.63394        -0.95435
C         50.26273        28.73264        -0.31366
C         48.95808        29.42292         0.00370
C         50.20141        31.62027        -0.17633
C         48.98120        30.91666        -0.18119
C         50.21625        33.05388        -0.16622
C         48.98043        33.75994        -0.05985
C         50.17716        35.87993         0.21146
C         48.98474        35.19282         0.18967
C         50.22626        37.27682         0.76898
C         48.93250        38.03023         0.60336
C         50.17596        40.17123         0.41890
C         48.94155        39.44486         0.56284
C         50.16535        41.58042         0.33279
C         48.92573        42.29765         0.41561
C         50.13759        44.43944         0.13716
C         48.91858        43.71861         0.33940
C         50.13993        45.86575         0.12089
C         48.89731        46.58169         0.17604
C         50.13526        48.78013         0.36337
C         48.87158        48.03085         0.21195
C         50.13764        50.23221         0.08802
C         48.90604        50.93514         0.07116
C         50.11897        53.01412        -0.21247
C         48.89810        52.34082        -0.08140
C         51.46752        20.88964        -0.61002
C         52.80452        23.04650        -1.35785
C         51.49271        22.24780        -1.18703
C         52.72071        24.46658        -0.80032
C         51.50610        25.15800        -0.78719
C         52.71238        27.22860        -0.08323
C         51.46209        26.56622        -0.45925
C         52.71913        28.76826        -0.05019
C         51.44083        29.46514        -0.23712
C         52.65846        31.61756        -0.29650
C         51.45035        30.91143        -0.22320
C         52.67457        33.04818        -0.27894
C         51.45442        33.74888        -0.20409
C         52.70664        35.90378         0.13364
C         51.43216        35.24996        -0.33806
C         52.68984        37.33577         0.30064
C         51.45251        38.05130         0.36468
C         52.65377        40.19152         0.16603
C         51.42769        39.45020         0.31534
C         52.64521        41.59813         0.05458
C         51.38633        42.31721         0.11318
C         52.58711        44.42947        -0.52205
C         51.36111        43.70972        -0.01352
C         52.59868        45.89923        -0.19518
C         51.40709        46.56382         0.04082
C         52.65732        48.77285        -0.08678
C         51.44127        48.02210         0.27823
C         52.62793        50.17813        -0.17194
C         51.36385        50.91758        -0.08393
C         51.32482        52.32057        -0.23278
C         55.15400        22.98529        -0.53352
C         54.02807        22.32026        -0.86034
C         55.20349        24.43611        -0.48725
C         53.97486        25.14950        -0.55112
C         55.19138        27.28310        -0.22825
C         53.98778        26.55171        -0.31500
C         55.19578        28.73967        -0.27665
C         53.97593        29.44504        -0.33646
C         55.20917        31.66515        -0.68547
C         53.91505        30.89142        -0.58954
C         55.17501        33.09024        -0.27850
C         53.93878        33.76502        -0.21047
C         55.15662        35.84543         0.43988
C         53.89165        35.17684         0.10510
C         55.15951        37.36845         0.51562
C         53.89425        38.07159         0.32474
C         55.13511        40.19887         0.19106
C         53.90129        39.48673         0.21254
C         55.12719        41.61592         0.06064
C         53.88292        42.31615        -0.03210
C         55.09022        44.44660        -0.22353
C         53.88408        43.73115        -0.18939
C         55.07628        45.89891        -0.33145
C         53.85639        46.60772        -0.26373
C         55.08570        48.75371        -0.48444
C         53.86566        48.04657        -0.27942
C         55.03862        50.16968        -0.55426
C         53.85039        50.85591        -0.42163
C         57.69276        24.46377        -0.25004
C         56.42949        25.14069        -0.31295
C         57.65378        27.29278        -0.14741
C         56.42737        26.57170        -0.24383
C         57.65468        28.72863        -0.15232
C         56.43757        29.43782        -0.31024
C         57.69577        31.61262        -0.08158
C         56.53575        30.89603        -0.73122
C         57.66477        33.02184         0.07986
C         56.42048        33.75082        -0.01117
C         57.64360        35.86511         0.30154
C         56.43660        35.14769         0.20963
C         57.66374        37.34221        -0.01953
C         56.40684        38.09788         0.29490
C         57.64191        40.21474         0.16743
C         56.38994        39.48139         0.20675
C         57.61739        41.63232         0.06684
C         56.36045        42.33732        -0.01237
C         57.57865        44.47529        -0.22901
C         56.34138        43.74867        -0.14073
C         57.55651        45.89320        -0.40852
C         56.31420        46.60838        -0.43844
C         57.57090        48.70160        -0.72709
C         56.32564        48.02630        -0.56585
C         58.87005        25.15464        -0.13373
C         60.09745        27.30786         0.00233
C         58.88649        26.58485        -0.08720
C         60.09295        28.69702         0.05792
C         58.89418        29.43285        -0.00512
C         60.03629        31.59115         0.57263
C         58.87964        30.88679         0.14863
C         60.03408        32.96803         0.67570
C         58.86323        33.72159         0.41987
C         60.06223        35.92611         0.61107
C         58.87426        35.17099         0.43355
C         60.06213        37.32752         0.62940
C         58.90657        38.07782         0.39803
C         60.07319        40.28139         0.39384
C         58.87830        39.51722         0.32809
C         60.05583        41.65186         0.23801
C         58.84163        42.36205         0.05314
C         60.03005        44.53707        -0.26438
C         58.82211        43.79333        -0.13987
C         60.01265        45.89780        -0.46566
C         58.78163        46.60403        -0.53208
C         58.76113        48.01582        -0.71495
O         44.61807        55.24029         0.72280
O         30.85431        26.81222        -1.90055
O         36.43131        21.49325        -1.08146
O         48.50307        27.17954        -2.24533
O         30.23862        44.66599         1.82478
O         29.29259        34.33956        -2.48106
O         43.82871        38.71872         2.38579
O         31.78891        48.38801         2.76933
O         35.48937        24.08962         1.49864
O         46.25734        47.37217        -1.16516
O         45.31728        36.25894         2.13497
O         50.65376        22.41318        -2.38644
O         55.16147        36.52493         1.74446
O         34.70055        31.35055        -2.65942
O         34.80704        48.36841         2.90179
O         29.00172        40.30352        -2.81993
O         25.39553        36.53331        -2.86845
O         43.52870        33.74359        -1.63099
O         26.84906        26.91244        -1.13426
O         50.88090        48.41383         1.58580
O         42.66376        23.52968        -1.99301
O         32.39208        44.60614        -0.98366
O         37.26761        29.03125        -2.56877
O         28.02402        45.92265         1.75201
O         40.38379        45.11509         2.51149
O         24.46333        40.26025        -2.90165
O         54.44562        31.36584        -1.90691
O         26.20439        44.71342        -2.09901
O         45.34931        49.42965         1.87950
O         52.70114        27.96037         1.18614
O         53.02086        23.22252        -2.78683
H         52.12934        23.16118        -3.21024
O         50.37432        37.08918         2.23158
H         50.35500        37.97797         2.64653
O         40.96874        55.69374        -2.89843
H         40.09814        55.24233        -2.87929
O         41.75204        19.00707         3.06947
H         41.00728        18.61027         3.57079
O         51.38988        35.52739        -1.79511
H         50.65760        34.99527        -2.17387
O         31.99660        39.91970        -2.62716
H         31.13334        39.84894        -3.09340
O         45.43081        19.90135        -1.47052
H         44.62170        19.42004        -1.74136
O         39.08694        51.15196         2.65501
H         39.09357        50.27788         3.10158
O         31.40173        31.02746        -2.76680
H         32.22419        30.66500        -3.16274
O         27.01799        47.34805        -1.44143
H         26.85167        46.62690        -2.09551
O         26.79960        39.54183        -3.56619
H         25.87523        39.40709        -3.88118
O         56.92177        30.82350        -2.14434
H         56.07869        30.77099        -2.65516
O         52.48195        44.36495        -1.99988
H         52.48643        43.41600        -2.24939
O         35.53997        36.33866        -2.64528
H         35.60634        35.46918        -3.09512
O         46.43428        21.39237         1.71855
H         47.24987        21.86584         1.98405
O         36.28524        39.05654         2.03874
H         36.23386        39.90409         2.53082
O         42.62669        44.29886        -1.08085
H         43.39548        44.79642        -1.43691
O         47.72365        24.31438        -2.75980
H         47.87453        25.21745        -3.12146
O         34.96876        44.03209         2.82075
H         35.61652        44.54423         3.35051
O         26.09487        47.56973         2.14899
H         26.82128        46.99417         2.49246
O         57.71737        37.35151        -1.51745
H         58.57084        36.93861        -1.77305
O         37.65247        54.95861         1.72557
H         38.37391        54.50441         2.21171
O         48.82623        29.22101         1.47406
H         49.62551        29.60666         1.89419
O         30.29713        33.44355         0.90921
H         31.06968        33.02133         1.34082
O         47.69703        53.79098         1.34981
H         46.86143        54.28865         1.48626
O         43.92371        42.32821         2.69378
H         43.92650        41.39852         3.01058
O         41.26910        34.75045         1.78520
H         41.39361        35.57207         2.30871
O         30.66706        48.80837        -0.66896
H         29.91226        49.21286        -1.14838
O         31.43148        51.18320         3.08213
H         31.48582        50.28723         3.49135
O         39.30733        34.12068        -2.44755
H         39.31759        33.24747        -2.89532
H         22.46216        27.49131         2.33990
H         22.34360        29.83186         1.58107
H         22.14932        31.52287         0.59674
H         22.10122        33.84092        -0.14702
H         22.05569        35.60801        -0.91483
H         22.06188        37.99798        -1.33706
H         22.18870        39.81045        -0.53663
H         22.18016        42.22298        -0.36935
H         21.99327        44.08598        -0.58206
H         21.96851        46.47797        -0.10242
H         25.66811        23.96020         2.03288
H         23.69105        25.32723         2.47686
H         25.25886        49.92685         0.48256
H         23.19958        48.70474        -0.11588
H         27.07068        22.82549         1.27223
H         26.88885        50.73605         1.23616
H         29.13304        21.56755         1.11791
H         29.00912        51.88051         1.74366
H         32.78953        19.31234         0.86964
H         30.69862        20.55325         0.78368
H         32.69056        53.91194         0.14245
H         30.63312        52.89162         0.89559
H         34.49630        18.59277         1.74852
H         34.31841        54.64508        -0.58836
H         36.62007        17.44313         2.01794
H         36.37698        55.91594        -0.77938
H         40.40071        15.28861         2.30154
H         38.26479        16.48065         2.11370
H         40.07631        58.08549        -1.36057
H         38.07792        57.04215        -0.36448
H         42.86254        15.25029         2.11748
H         42.48737        57.93329        -2.07244
H         44.98158        16.39038         1.63290
H         44.61441        57.04446        -1.26332
H         48.69321        18.33943         0.49285
H         46.63877        17.27908         1.24765
H         48.38993        54.60886        -1.53008
H         46.23530        55.77438        -1.77608
H         50.35381        19.28114         0.17982
H         50.12971        54.11029        -0.28815
H         52.40714        20.33422        -0.48525
H         52.25272        52.89538        -0.34653
H         56.05507        22.41169        -0.27495
H         54.05948        21.22378        -0.92582
H         55.95845        50.74558        -0.71871
H         53.87112        51.95071        -0.49455
H         57.72560        23.36754        -0.30364
H         57.59055        49.79193        -0.85274
H         59.82610        24.61303        -0.08994
H         61.05020        26.76052         0.03992
H         61.05506        29.22023         0.14147
H         60.96157        31.04601         0.80141
H         60.96034        33.47679         0.97425
H         61.01859        35.41045         0.76882
H         61.01415        37.83588         0.83889
H         61.03846        39.77699         0.53558
H         61.01107        42.19186         0.26771
H         60.99898        44.02358        -0.21495
H         60.95494        46.45479        -0.56863
H         59.71322        48.55360        -0.82902
