         598
 CSIRO Nanostructure Databank - Neutral Graphene Oxide Data Set
C         23.00610        69.98531        -0.49112
C         22.97306        71.45190        -0.63800
C         21.72664        72.15080        -0.32268
C         22.93722        74.22762         0.06976
C         21.73285        73.49935        -0.06921
C         25.42037        65.72858         0.11025
C         25.32579        67.12745         0.21580
C         24.17769        67.84615        -0.14734
C         25.41208        70.00511         0.00828
C         24.15867        69.27766        -0.19538
C         25.48193        71.38608        -0.28317
C         24.29243        72.24301        -0.55997
C         25.29857        74.45649         0.43127
C         24.22343        73.66119        -0.05468
C         28.03355        61.60834        -0.54637
C         27.96207        62.98337        -0.16043
C         26.73148        63.65865        -0.08563
C         27.83370        65.69501         0.74249
C         26.64698        65.02448         0.28529
C         27.76193        67.12892         1.11350
C         26.47923        67.88015         0.76151
C         27.79189        70.00686         0.67099
C         26.57273        69.32085         0.45449
C         27.83572        71.39458         0.41200
C         26.74352        71.98596        -0.21150
C         27.79572        74.52231         0.99089
C         26.68497        74.15817         0.26477
C         30.56983        57.41388        -1.21482
C         30.54410        58.81715        -0.94002
C         29.34115        59.55942        -1.01372
C         30.49749        61.71377        -0.51644
C         29.25173        60.93347        -0.68176
C         30.43654        63.06709         0.07827
C         29.16317        63.69808         0.19100
C         30.29245        65.66070         1.22220
C         29.06638        65.02164         0.70743
C         30.26064        67.22100         1.44302
C         29.01171        67.92010         1.16597
C         30.29296        70.00430         0.93933
C         29.03036        69.29661         0.98586
C         30.29461        71.44501         0.57755
C         29.02300        72.20002         0.80346
C         30.37183        74.37251         0.87843
C         29.05200        73.69724         0.98371
C         33.02327        53.10678        -1.42640
C         32.96202        54.48118        -1.16417
C         31.76731        55.24289        -1.25902
C         32.83496        57.27053        -0.24865
C         31.70095        56.62704        -0.96088
C         32.90103        58.73885        -0.16599
C         31.75974        59.46811        -0.52279
C         32.97789        61.54758         0.19405
C         31.80888        60.92835        -0.43913
C         32.86804        62.94659         0.63066
C         31.62072        63.71871         0.46041
C         32.78024        65.80283         1.22245
C         31.60275        65.06207         0.95986
C         32.73383        67.20452         1.41798
C         31.53046        67.93054         1.35306
C         32.78693        70.07209         1.06256
C         31.51545        69.34785         1.12686
C         32.81143        71.47023         0.85070
C         31.57221        72.21160         0.57618
C         32.84252        74.34251         0.74782
C         31.56351        73.69099         0.74964
C         35.48619        48.66154        -1.28345
C         35.37229        50.09564        -0.82397
C         34.23060        50.94215        -1.36185
C         35.52288        53.04252        -1.13588
C         34.22736        52.31991        -1.31380
C         35.52269        54.50486        -0.80637
C         34.21539        55.22546        -0.85170
C         35.38027        57.25262         0.18594
C         34.13106        56.51809        -0.11525
C         35.31626        58.61962         0.46487
C         34.11897        59.38071         0.21507
C         35.41925        61.51753         0.65364
C         34.13763        60.80959         0.38370
C         35.41897        62.98572         0.90280
C         34.10578        63.67768         1.05557
C         35.34930        65.79945         1.53811
C         34.12647        65.18128         0.89331
C         35.28988        67.23899         1.85015
C         33.98659        67.96635         1.66309
C         35.24920        70.05448         1.04048
C         34.00976        69.39324         1.27631
C         35.23004        71.44225         0.74591
C         34.03248        72.16922         0.76619
C         35.31054        74.29572         0.67690
C         34.04762        73.63381         0.69233
C         38.04893        44.46932        -1.53045
C         37.98057        45.87908        -1.58316
C         36.76700        46.56752        -1.48403
C         37.99224        48.76881        -1.37173
C         36.68756        47.99303        -1.34466
C         37.89361        50.10909        -0.70468
C         36.70656        50.79091        -0.77533
C         37.84756        52.92804        -0.08226
C         36.73500        52.26060        -0.75845
C         37.79557        54.28926         0.20159
C         36.65428        55.09728        -0.06300
C         37.74484        57.10947         0.86115
C         36.61216        56.49094         0.31015
C         37.73290        58.48936         1.36420
C         36.47397        59.29965         1.10718
C         37.80816        61.40602         1.36481
C         36.61765        60.76313         1.05576
C         37.88379        62.86832         1.47923
C         36.56055        63.57317         1.75079
C         37.81511        65.74813         1.67832
C         36.58113        65.10478         1.59009
C         37.87608        67.22457         1.62398
C         36.56451        68.02538         1.71913
C         37.73775        70.00700         0.76851
C         36.51324        69.36405         1.14328
C         37.71914        71.36767         0.45099
C         36.44630        72.11903         0.20366
C         37.76824        74.24755         0.43991
C         36.52053        73.60172         0.50925
C         40.45129        40.17682        -1.50956
C         40.48995        41.58303        -1.61969
C         39.28666        42.36420        -1.52045
C         40.48523        44.46435        -2.20830
C         39.26230        43.75037        -1.64604
C         40.56459        45.95583        -1.79238
C         39.25829        46.64884        -1.59042
C         40.35502        48.60259        -0.49859
C         39.21803        47.99120        -0.96923
C         40.28232        49.99305        -0.02647
C         39.09305        50.70973        -0.17090
C         40.20814        52.71675         0.93163
C         38.96728        52.07715         0.36872
C         40.30515        54.20472         0.88199
C         39.05660        54.96179         0.59966
C         40.21332        57.01780         1.58501
C         38.94911        56.33149         1.15203
C         40.22343        58.48996         1.61971
C         39.01698        59.21465         1.53796
C         40.23154        61.30376         1.91582
C         39.02251        60.63763         1.58855
C         40.32624        62.78466         1.95863
C         39.05990        63.52193         1.73695
C         40.31159        65.62526         1.19962
C         39.12345        65.02540         1.96411
C         40.14230        66.97997         0.59031
C         39.00412        67.85036         0.94482
C         40.16134        69.86589         0.14568
C         38.97917        69.22087         0.63214
C         40.16477        71.28791        -0.22153
C         38.89215        72.07860        -0.05168
C         40.20635        74.17637        -0.02202
C         38.97156        73.55013         0.13036
C         42.70069        35.76003        -1.15422
C         42.73532        37.17936        -1.32819
C         41.59304        37.96670        -1.41471
C         42.88013        40.09693        -1.53116
C         41.63374        39.40655        -1.50497
C         42.93718        41.49474        -1.65116
C         41.74878        42.23906        -1.76908
C         43.01415        44.43321        -1.48895
C         41.78567        43.71166        -1.96738
C         42.94056        45.83799        -0.99946
C         41.76527        46.55808        -1.12664
C         42.76426        48.49078         0.02821
C         41.64766        47.89258        -0.51197
C         42.66143        49.77036         0.77550
C         41.44784        50.60710         0.59070
C         42.61780        52.63149         1.57527
C         41.45007        51.93103         0.98286
C         42.68008        54.11675         1.57911
C         41.50252        54.88055         1.44579
C         42.70122        57.01348         1.72333
C         41.50732        56.29908         1.55003
C         42.74434        58.46654         1.71769
C         41.45230        59.14640         1.86138
C         43.15348        61.50804         1.72148
C         41.34874        60.50623         2.20691
C         42.90564        62.80978         1.24649
C         41.66095        63.54524         1.62009
C         42.68184        65.51329         0.42811
C         41.50148        64.92976         1.07094
C         42.68032        66.98972         0.24635
C         41.37522        67.69133         0.08335
C         42.55797        69.85587        -0.35770
C         41.38222        69.17039         0.00315
C         42.61757        71.28538        -0.44632
C         41.43009        72.02408        -0.28028
C         42.66460        74.11958        -0.39425
C         41.43163        73.45468        -0.26129
C         44.93263        33.05425         0.16322
C         43.92050        33.65652        -0.59250
C         45.14421        35.72153        -1.14991
C         43.88551        35.01354        -1.06001
C         45.25831        37.06986        -0.97414
C         44.06244        37.84543        -1.37440
C         45.36093        40.03526        -1.01247
C         44.14328        39.33471        -1.48636
C         45.40225        41.39979        -1.02135
C         44.28863        42.19698        -1.67994
C         45.30690        44.20733        -0.37355
C         44.12292        43.55372        -0.99500
C         45.28026        45.67159        -0.19112
C         44.13931        46.41168        -0.39071
C         45.24182        48.46557         0.67669
C         44.14446        47.91864        -0.21822
C         45.23036        49.76262         1.12472
C         43.91312        50.41764         1.32392
C         45.18253        52.60784         1.70962
C         43.90639        51.86371         1.72564
C         45.15445        54.02840         1.74629
C         43.92173        54.75828         1.78239
C         45.19966        56.95441         1.35587
C         43.93376        56.23015         1.85265
C         45.02084        58.30522         0.76951
C         43.91455        59.15198         1.29478
C         45.07109        61.20082         0.31050
C         44.04796        60.59259         1.10554
C         45.08752        62.61171         0.12934
C         43.92686        63.39356         0.45616
C         45.00393        65.40825        -0.63703
C         43.83485        64.80446         0.14087
C         45.10568        66.92229        -0.59465
C         43.88689        67.69226        -0.27152
C         44.96619        69.80399        -1.22885
C         43.73113        69.08169        -0.79875
C         45.04120        71.27577        -1.05494
C         43.85128        71.97688        -0.71014
C         45.11776        74.07851        -0.75657
C         43.87539        73.40902        -0.62981
C         46.16471        33.58440         0.61726
C         47.68070        35.65484         0.49706
C         46.76130        34.71288         0.02071
C         47.70930        37.02140         0.03911
C         46.44761        37.73160        -0.38234
C         47.75331        39.94062        -0.22432
C         46.46283        39.25174        -0.39374
C         47.79077        41.34955        -0.32103
C         46.59561        42.10279        -0.57602
C         47.81747        44.18511        -0.11961
C         46.60017        43.48927        -0.37419
C         47.80684        45.57126         0.30916
C         46.47924        46.22038         0.49973
C         47.68037        48.31285         1.42294
C         46.42033        47.63401         0.97767
C         47.71528        49.79569         1.44044
C         46.44890        50.48665         1.47221
C         47.67868        52.64816         1.95094
C         46.40356        51.88602         1.64640
C         47.60276        54.06436         1.40894
C         46.38995        54.72916         1.44910
C         47.59657        56.83098         0.44132
C         46.30564        56.09149         0.89560
C         47.55411        58.28909         0.20906
C         46.23763        58.92538         0.06757
C         47.46669        61.08468        -0.61286
C         46.17783        60.39049        -0.23553
C         47.46123        62.56237        -0.55611
C         46.30817        63.27036        -0.32451
C         47.51624        65.47940        -0.91164
C         46.34249        64.78764        -0.22478
C         47.52371        66.85423        -1.09809
C         46.25716        67.57668        -0.92826
C         47.50733        69.73401        -1.55678
C         46.23020        69.00504        -1.33720
C         47.49579        71.23648        -1.58412
C         46.25299        71.95866        -1.22318
C         47.57914        74.05801        -0.96329
C         46.31746        73.37842        -1.00013
C         48.83727        37.79231         0.31026
C         50.14962        39.91215         0.28694
C         48.91882        39.21211         0.11649
C         50.22274        41.30026         0.16477
C         49.01777        42.03767        -0.09823
C         50.31070        44.15149        -0.09297
C         49.02684        43.45130        -0.10942
C         50.28613        45.63469         0.31409
C         48.97940        46.22255         0.66304
C         50.25055        48.31630         1.48719
C         48.96774        47.54283         1.34571
C         50.22358        49.78880         1.32774
C         48.93820        50.47416         1.40717
C         50.09900        52.62210         1.38543
C         48.93801        51.92248         1.51577
C         50.07012        54.09744         1.53822
C         48.81179        54.79490         1.16440
C         50.04396        56.96540         0.99835
C         48.82718        56.13961         0.82629
C         50.03404        58.40598         0.44867
C         48.75222        59.02259        -0.01143
C         49.99235        61.00427        -0.96411
C         48.75293        60.34850        -0.48268
C         49.94666        62.47570        -1.19763
C         48.67036        63.20755        -1.11320
C         49.99253        65.40171        -1.46179
C         48.69843        64.70983        -1.32677
C         50.00639        66.84555        -1.44779
C         48.75545        67.56365        -1.37128
C         49.97960        69.70216        -1.49928
C         48.78961        68.99721        -1.41441
C         50.01982        71.14886        -1.05643
C         48.80289        71.95688        -1.46649
C         50.05739        74.02591        -0.95654
C         48.80946        73.39358        -1.08563
C         51.47319        42.03041         0.30239
C         52.85869        44.13880         0.08749
C         51.54439        43.38310         0.13894
C         52.78115        45.58153         0.57241
C         51.55658        46.22100         0.77843
C         52.77333        48.40764         1.06808
C         51.55805        47.60910         1.26916
C         52.71972        49.81418         1.07310
C         51.41746        50.47596         1.15213
C         52.63938        52.65634         1.24195
C         51.35516        51.95753         0.87860
C         52.63821        54.08945         1.53067
C         51.34949        54.85419         1.52699
C         52.50584        56.98780         0.97159
C         51.33990        56.27934         1.12451
C         52.49404        58.37300         0.56085
C         51.33731        59.01630         0.13810
C         52.65691        61.02131        -0.64432
C         51.38421        60.27707        -0.65529
C         52.86921        62.22067        -1.36785
C         50.98607        63.20646        -1.74651
C         52.47261        65.27400        -1.64152
C         51.16394        64.64604        -1.65557
C         52.48558        66.75937        -2.02345
C         51.21272        67.51193        -1.67155
C         52.51269        69.75996        -1.77575
C         51.22158        68.97750        -1.77919
C         52.51229        71.21251        -1.45085
C         51.31018        71.89533        -1.29591
C         52.52287        74.01357        -1.16746
C         51.29758        73.32458        -1.12966
C         53.98844        46.28751         0.78355
C         55.20515        48.45130         1.07467
C         54.00948        47.70340         0.95941
C         55.21458        49.86298         1.09701
C         53.94780        50.55938         0.96347
C         54.99727        52.82334         0.66509
C         53.84887        52.00781         0.97602
C         55.13867        54.16546         0.92660
C         53.92064        54.87132         1.37424
C         55.10468        56.96499         0.59246
C         53.80173        56.26375         0.87970
C         55.05416        58.41970         0.69020
C         53.78510        59.07848         0.66549
C         55.08772        61.19114        -0.09498
C         53.77015        60.57462         0.15447
C         55.04698        62.63503        -0.46108
C         53.78703        63.21061        -0.95930
C         54.90514        65.37912        -1.03169
C         53.69182        64.62696        -1.25642
C         54.99981        66.76450        -1.48976
C         53.70230        67.50848        -1.48943
C         55.04375        69.73536        -1.46108
C         53.75155        68.99704        -1.43470
C         55.01374        71.19561        -1.49394
C         53.76298        71.89960        -1.42013
C         54.99159        74.02779        -1.34975
C         53.75977        73.33033        -1.31202
C         56.48901        50.49665         1.41693
C         57.76483        52.74396         1.44558
C         56.83729        51.78363         0.98771
C         57.66857        54.16413         1.19837
C         56.41719        54.86022         0.89625
C         57.57709        57.04947         1.04555
C         56.39620        56.26797         0.85120
C         57.56101        58.46610         0.93545
C         56.34310        59.12248         0.35750
C         57.39819        61.34911         0.81280
C         56.28792        60.60751         0.55055
C         57.29079        62.84179         0.81578
C         56.06767        63.47174         0.20239
C         57.32656        65.66792        -0.02217
C         56.00776        64.90553        -0.18517
C         57.44873        66.95382        -0.68007
C         56.28600        67.57236        -1.29034
C         57.50254        69.76626        -1.27802
C         56.23672        69.05938        -1.32528
C         57.52059        71.18281        -1.79797
C         56.21715        71.90871        -1.53180
C         57.45614        74.04843        -1.47880
C         56.21968        73.34313        -1.47504
C         58.80883        54.95992         1.44890
C         59.97546        57.16379         1.55942
C         58.81149        56.37981         1.36484
C         59.95229        58.57702         1.46564
C         58.71225        59.24111         1.15092
C         59.80991        61.44993         1.31553
C         58.66824        60.69034         1.10056
C         59.69761        62.94550         1.57979
C         58.53623        63.64837         0.87503
C         59.80808        65.72160         0.35477
C         58.55445        64.96445         0.47090
C         59.85772        66.99586        -0.13952
C         58.57867        67.80263        -0.19548
C         59.93436        69.82504        -0.87705
C         58.65718        69.13992        -0.87684
C         59.93369        71.27260        -1.08139
C         58.74590        71.94632        -1.36359
C         59.91052        74.10414        -1.21782
C         58.70725        73.38350        -1.37987
C         61.11539        59.37706         1.61992
C         62.27470        61.54781         1.61940
C         61.07352        60.78558         1.53899
C         62.30151        62.94901         1.47398
C         61.02013        63.69945         1.43475
C         62.34887        65.71801         0.55153
C         61.05216        65.08289         0.84651
C         62.38931        67.02713         0.03255
C         61.15009        67.61284        -0.63285
C         62.38647        69.84141        -0.80981
C         61.10587        69.13144        -0.65893
C         62.38891        71.31552        -0.77687
C         61.15915        72.00226        -0.93712
C         62.36885        74.13764        -0.92173
C         61.14606        73.43704        -1.03043
C         63.49562        63.67265         1.36852
C         64.75410        65.76977         0.97210
C         63.54052        65.05656         0.98964
C         64.79636        67.12425         0.56276
C         63.60671        67.72956         0.03920
C         64.85811        69.92887        -0.14159
C         63.68306        69.11224        -0.46895
C         64.83261        71.33011        -0.32234
C         63.60085        72.01911        -0.63345
C         64.80185        74.17351        -0.55082
C         63.58926        73.45997        -0.70606
C         65.99456        67.88290         0.64465
C         67.21025        70.03103         0.54362
C         66.03204        69.27272         0.35524
C         67.22580        71.42420         0.30920
C         66.02087        72.08718        -0.08926
C         67.21978        74.23605        -0.04840
C         66.01218        73.51254        -0.24294
C         68.40858        72.19407         0.49671
C         68.39527        73.57422         0.30818
O         33.29205        63.12252         2.08533
O         51.91566        69.46165        -3.06103
O         23.66272        71.98987        -1.84082
O         39.99068        46.77464        -2.89018
O         33.18260        56.54763         0.99290
O         40.06191        54.78350        -0.46882
O         39.28970        71.60926        -1.39886
O         53.61513        60.25930         1.55049
O         46.52640        60.60687        -1.64040
O         46.70395        56.12303        -0.49147
O         56.01276        52.22353        -0.07678
O         30.15987        66.25789         2.53310
O         45.98739        38.52027         0.80141
O         36.30736        63.33580         3.08968
O         54.30730        56.34871        -0.50628
O         43.05619        52.10682         2.88383
O         53.51908        68.18602        -0.20601
O         43.58238        67.67935         1.18307
O         34.50489        67.67130         3.02137
O         44.92991        56.82960         2.76089
O         46.09653        46.51998         1.89404
O         40.48475        67.02707        -0.85754
O         50.40098        45.21094        -1.09880
O         60.99455        64.85985         2.33128
O         56.22972        65.76264         0.99094
O         44.34140        38.50144        -2.68914
O         50.62228        54.61883         2.79706
O         48.22557        71.72829        -2.77295
O         41.18716        63.35946         2.97822
O         31.38511        61.62983        -1.67484
O         56.15868        63.28485         1.64749
O         36.51362        52.74549        -2.17037
O         36.75764        58.73263         2.43449
O         48.36011        63.79774        -2.44484
O         43.05436        49.60112         2.18827
O         26.78710        67.50411         2.14355
O         43.99713        69.30003        -2.22081
O         51.00815        47.82912         2.64330
O         35.13292        55.33051        -1.98355
O         55.89836        66.98891        -2.61948
O         28.98296        72.75343         2.16288
O         39.17800        52.20060         1.83640
O         42.45302        61.07708         2.84894
O         45.17104        58.23962        -0.68126
O         35.74353        62.53568        -0.42121
O         44.25431        43.51768         0.44391
O         50.71100        60.19559        -1.94188
O         39.30450        56.41815         2.58299
O         52.00056        62.51807        -2.40992
O         55.47750        61.60631        -1.44332
O         53.45988        54.52967         2.69797
O         26.92437        73.24352        -0.78134
O         30.94555        71.75458        -0.69813
O         46.30274        34.96011        -1.28498
O         49.89384        58.10806         1.89390
O         37.46174        67.89713         2.86863
O         46.77949        69.15680        -2.69826
O         48.22328        47.64790         2.60767
O         42.79525        44.21638        -2.92069
O         63.22937        69.25449        -1.87768
O         57.62498        71.09945        -3.26471
H         56.88025        70.54568        -3.58353
O         39.35330        65.27307         3.37644
H         38.66007        64.79265         3.87972
O         44.71130        42.39565        -3.04483
H         44.02083        42.94717        -3.48842
O         56.45117        58.94140        -1.10602
H         56.46086        57.97705        -1.29097
O         46.49634        65.09413         1.19190
H         47.30521        64.65531         1.52754
O         53.88549        43.43750         0.78901
H         53.67038        43.44500         1.74397
O         38.22846        49.10983        -2.78175
H         38.72050        48.36880        -3.20067
O         47.73669        52.78026         3.40162
H         47.74724        51.88069         3.79119
O         35.01020        49.96971         0.61675
H         35.66466        49.37211         1.03893
O         44.79572        65.05131        -2.02436
H         44.03630        65.55780        -2.38010
O         61.25103        67.21869        -2.04267
H         61.99444        67.74754        -2.42267
O         36.28421        72.02615        -1.26592
H         37.17270        72.12197        -1.67742
O         49.89114        71.07631         0.41357
H         50.73042        70.72381         0.77956
O         52.62195        66.79380        -3.47272
H         51.80707        66.42298        -3.87169
O         58.26684        68.14460         1.20906
H         57.85681        67.35886         1.63402
O         34.30672        65.37794        -0.55452
H         34.31331        66.34003        -0.74286
O         40.28331        44.39548        -3.63904
H         39.94066        45.27582        -3.92466
O         44.52372        48.45186        -1.54929
H         43.89241        48.08496        -2.20634
O         51.26782        52.10408        -0.59731
H         52.01971        51.60872        -0.98873
O         59.33898        63.00530         2.98937
H         59.61438        63.89579         3.31045
H         22.86726        75.28173         0.37665
H         25.02661        75.36204         0.99689
H         27.70766        75.26966         1.79415
H         30.38980        75.47103         0.94971
H         32.86982        75.44216         0.79085
H         35.33077        75.39359         0.76167
H         37.81592        75.33690         0.59411
H         40.26382        75.27146         0.07147
H         42.69519        75.21786        -0.33715
H         45.15012        75.17172        -0.63642
H         47.57715        75.13800        -0.75047
H         50.09325        75.10770        -0.75754
H         52.52811        75.11011        -1.07797
H         54.99108        75.12511        -1.27225
H         57.43716        75.14822        -1.45364
H         59.89036        75.20358        -1.24303
H         62.36964        75.23543        -0.99167
H         64.79358        75.27032        -0.63700
H         67.21700        75.32793        -0.17541
H         22.04948        69.44500        -0.56725
H         20.79376        71.57166        -0.26284
H         20.78416        74.02042         0.12264
H         24.54890        65.16652        -0.25812
H         23.27526        67.29733        -0.45604
H         27.09455        61.06594        -0.73282
H         25.81234        63.13166        -0.38146
H         29.67281        56.94546        -1.64670
H         28.41013        59.01891        -1.24184
H         32.08432        52.57455        -1.64485
H         30.85895        54.74578        -1.63301
H         34.55094        48.07990        -1.33554
H         33.27373        50.41958        -1.52206
H         37.11901        43.90591        -1.35652
H         35.83239        45.98553        -1.45921
H         39.47709        39.67300        -1.42548
H         38.34816        41.83640        -1.28999
H         41.72909        35.26375        -1.00980
H         40.60577        37.48003        -1.40627
H         44.65455        32.08349         0.60616
H         42.97109        33.09995        -0.64980
H         46.62495        33.12697         1.50555
H         48.34735        35.39013         1.33286
H         49.73828        37.27924         0.68021
H         51.05830        39.33909         0.52426
H         52.39678        41.46064         0.48694
H         53.17618        44.16838        -0.99269
H         54.94030        45.74398         0.69705
H         56.16268        47.91337         1.13460
H         57.18791        49.91664         2.03905
H         58.59773        52.40703         2.08231
H         59.75095        54.45421         1.71091
H         60.92829        56.66020         1.78220
H         62.08146        58.88592         1.81126
H         63.23027        61.01038         1.71614
H         64.45046        63.14442         1.51140
H         65.67518        65.28530         1.32677
H         66.90860        67.39255         1.00990
H         68.12591        69.52887         0.88844
H         69.33592        71.68598         0.79710
H         69.31907        74.15125         0.45497
