         247
 CSIRO Nanostructure Databank - Neutral Graphene Oxide Data Set
C         30.40197        31.69424         0.69270
C         30.34368        32.93575         0.64006
C         30.33752        36.19077         0.95752
C         30.49789        37.40895         1.11418
C         30.60849        40.64235         1.05992
C         30.67859        41.88831         1.08594
C         32.76892        28.85273         0.14221
C         31.70947        29.45174         0.37420
C         32.77274        31.59713         0.45460
C         31.52996        30.85486         0.52186
C         32.78762        33.04075         0.54174
C         31.49047        33.82161         0.44261
C         32.76314        36.02830         0.89301
C         31.46262        35.30776         0.56781
C         32.80658        37.52191         0.72945
C         31.62295        38.28978         0.93774
C         32.87888        40.33705         0.46032
C         31.65841        39.68614         0.82096
C         32.86929        41.79762         0.10142
C         31.74804        42.70752         0.62074
C         33.13314        44.50009        -0.03073
C         32.04804        44.03808         0.50598
C         35.37626        27.25209         0.63992
C         35.20550        28.72781         0.89237
C         34.15290        29.38781        -0.00974
C         35.23244        31.59802         0.54394
C         34.03603        30.90630         0.35441
C         35.25441        33.03414         0.64825
C         33.99940        33.73550         0.63818
C         35.28677        35.92969         0.62842
C         34.02395        35.21232         0.86284
C         35.25453        37.36083         0.26431
C         34.02280        38.17306         0.45150
C         35.37905        40.37181         0.35324
C         34.06501        39.58653         0.32791
C         35.39143        41.58381        -0.62569
C         34.11199        42.42470        -0.48667
C         35.39776        44.45750        -1.30415
C         34.25440        43.93051        -0.54363
C         35.74279        45.85403        -1.55668
C         37.72038        27.26096        -0.07747
C         36.42025        26.74160         0.22619
C         37.70850        28.72685         0.14377
C         36.56026        29.37975         0.53203
C         37.79929        31.59996         0.76699
C         36.50785        30.85015         0.75145
C         37.75221        33.07391         0.58879
C         36.49240        33.75840         0.66201
C         37.73957        35.91367         0.49656
C         36.48931        35.20855         0.57998
C         37.79781        37.41123         0.65943
C         36.55812        38.09589         0.13428
C         37.85141        40.13810        -0.49051
C         36.61890        39.55326         0.15445
C         37.95173        41.64401        -0.30989
C         36.65019        42.46248        -0.33955
C         38.03353        44.29238        -1.57599
C         36.70773        43.64183        -1.31433
C         38.04839        45.65051        -2.23277
C         36.72630        46.27177        -2.19357
C         40.05499        24.42365        -0.52451
C         39.07852        25.20144        -0.54253
C         40.11022        27.34949        -0.90388
C         38.83397        26.59980        -0.49659
C         40.16307        28.76800        -0.31856
C         39.00479        29.41676         0.02689
C         40.29601        31.63717         0.14053
C         39.06979        30.84625         0.46480
C         40.26645        33.15237         0.11262
C         38.94145        33.78304         0.45779
C         40.20635        35.91976         0.49602
C         38.93684        35.21213         0.48034
C         40.28297        37.27988         0.28849
C         39.08266        38.06137         0.16977
C         40.42643        40.06908        -0.36399
C         39.14054        39.40297        -0.15528
C         40.46643        41.45541        -1.00761
C         39.23784        42.30051        -0.67604
C         40.56225        44.29808        -1.60278
C         39.20923        43.68951        -1.22466
C         40.52238        45.81303        -1.53866
C         39.35196        46.43808        -2.20261
C         40.23528        48.51856        -1.41999
C         39.40657        47.89258        -2.11045
C         42.69499        24.44818        -0.20446
C         41.32767        25.04384         0.03572
C         42.71940        27.17418        -0.68639
C         41.40095        26.47324        -0.66393
C         42.71430        28.66843        -0.64171
C         41.49200        29.49818        -0.35138
C         42.73253        31.84970        -0.32533
C         41.44884        31.02663        -0.65892
C         42.74517        33.11806         0.41566
C         41.43230        33.66722         0.98963
C         42.66258        35.94877         1.24647
C         41.39217        35.19952         1.02207
C         42.77853        37.34286         0.75760
C         41.62201        37.89595        -0.03937
C         42.94879        40.05861        -0.33597
C         41.59823        39.40053        -0.13384
C         42.87744        41.57627        -0.28051
C         41.74001        42.23231        -0.67750
C         42.82594        44.44832        -0.51430
C         41.72706        43.67676        -0.85271
C         42.72707        45.88857        -0.44858
C         41.53787        46.56825        -0.93101
C         42.53468        48.64408        -0.21086
C         41.44150        48.04370        -0.84029
C         43.73125        25.13450        -0.11011
C         45.19969        27.24689        -0.29762
C         44.03145        26.51954        -0.29442
C         45.19156        28.69313        -0.64482
C         44.01544        29.23428        -1.06140
C         45.25944        31.98608        -0.46249
C         43.93312        31.45367        -0.83046
C         45.25495        33.28581         0.28112
C         43.91031        33.82217         0.61982
C         45.15466        35.87678         1.52667
C         43.87837        35.04486         1.50948
C         45.13108        37.38199         1.50286
C         43.94803        38.10189         0.93568
C         45.11329        40.35993         1.15386
C         44.04988        39.45220         0.53159
C         45.38877        41.62253         0.32903
C         44.17846        42.30203        -0.23400
C         45.18791        44.54435         0.48869
C         44.21606        43.82108        -0.43952
C         44.97767        45.94432         0.65234
C         43.80449        46.60755         0.15003
C         43.52948        47.98048         0.20168
C         47.57629        27.48091        -0.61437
C         46.57416        26.81472        -0.27550
C         47.76493        28.89172        -0.69441
C         46.42790        29.54175        -0.44259
C         47.74730        31.76357        -0.30741
C         46.43427        31.04810        -0.27276
C         47.83065        33.07498         0.42894
C         46.51512        33.78213         0.97271
C         47.60369        35.96619         1.66533
C         46.46892        35.20809         1.37597
C         47.73839        37.39149         1.53631
C         46.44189        38.12837         1.61670
C         47.70446        40.34604         1.67472
C         46.40017        39.60728         1.53373
C         47.69702        41.82737         1.51390
C         46.67032        42.46450         0.56584
C         47.50498        44.68921         1.38011
C         46.40279        43.93264         0.88446
C         47.15778        46.03083         1.58665
C         46.05959        46.57503         1.29170
C         50.19229        29.17576        -1.32228
C         48.88646        29.65550        -0.95578
C         50.19751        31.89070        -0.70930
C         48.88382        31.11642        -0.72085
C         49.91517        33.39021        -0.98537
C         49.03576        33.87539         0.14788
C         50.28572        36.04194         0.38286
C         49.36457        35.02392         0.82476
C         50.19536        37.41212         0.84149
C         48.98080        38.05733         1.34883
C         50.26684        40.39485         1.35734
C         49.00793        39.55191         1.64585
C         50.24146        41.88571         1.19228
C         48.99862        42.58511         1.58878
C         50.08464        44.65072         0.96651
C         48.85637        44.10629         1.55337
C         51.10736        29.91194        -1.79838
C         52.18583        32.26992        -2.13842
C         51.33157        31.28228        -1.70598
C         52.16177        33.50012        -1.76506
C         51.21046        34.23675        -1.07837
C         52.37931        36.44760        -0.69681
C         51.30531        35.52224        -0.50563
C         52.35658        37.57377        -0.16336
C         51.34337        38.27803         0.53516
C         52.39206        40.55403         0.31744
C         51.40161        39.64662         0.74909
C         52.46835        41.80425         0.32915
C         51.35242        42.61578         0.72625
C         51.14473        44.03657         0.75529
O         31.42207        34.70522        -0.73094
O         33.34788        35.59183         2.15680
O         33.04830        41.93894        -1.37121
O         38.86348        45.79271        -3.41208
O         42.19147        26.50491        -1.88528
O         38.84960        42.12213         0.73870
O         45.13793        41.54562        -1.10252
O         44.00451        30.42760        -1.77640
O         35.92252        37.54689        -1.08413
O         49.08754        43.42258         2.79780
O         37.15920        31.20602         2.03023
O         47.31543        32.89754         1.78373
O         49.92363        39.91788         2.70637
O         46.33760        30.17386         0.89688
O         40.12476        31.07526         1.45921
O         42.37841        29.12681         0.73743
O         48.74823        35.26763         2.05264
O         41.68928        35.77840         2.34944
O         45.54754        33.23341        -1.18180
O         47.41619        41.26807         2.80705
O         46.26089        38.94212         2.84026
O         35.78315        43.60653        -2.42651
O         45.00694        36.67398         2.77543
O         34.87211        29.02188         2.22787
H         35.58913        28.71729         2.82097
O         34.60799        29.27912        -1.34808
H         33.89855        29.56480        -1.95962
O         43.74643        34.48342         2.83989
H         43.87904        35.22411         3.47626
O         37.70490        39.92462        -1.93192
H         37.09699        39.16667        -2.08240
O         41.28331        33.17531         2.31677
H         41.99694        33.59268         2.85948
O         35.42042        40.91797         1.70993
H         35.64496        40.18816         2.32556
O         40.81029        43.93157        -2.99596
H         40.10407        44.35426        -3.54369
O         37.74496        37.67570         2.10152
H         38.50485        37.21753         2.52159
O         44.77404        44.05824        -1.76768
H         44.12225        43.74710        -2.43227
O         41.16161        25.25091         1.41032
H         41.10842        24.38854         1.87051
O         39.98212        27.56264        -2.32225
H         40.81094        27.23913        -2.75415
O         50.78566        31.79021         0.58009
H         50.79115        30.85232         0.86402
O         40.45617        41.22565        -2.43140
H         41.25049        40.69547        -2.65830
O         41.18023        31.10621        -2.06306
H         41.03216        32.05342        -2.29090
O         44.54336        40.87025         2.38504
H         44.80283        40.24421         3.10298
O         41.88043        37.42885        -1.42572
H         42.50158        38.08418        -1.83446
O         35.44100        41.07966        -1.95382
H         34.54762        41.18559        -2.35478
O         36.46830        43.08430         0.94727
H         37.27625        42.91142         1.48478
O         43.29692        39.74397        -1.74752
H         44.14591        40.22356        -1.92497
O         47.41328        42.46643        -0.68114
H         46.77699        42.71196        -1.39445
O         40.55864        33.56275        -1.25595
H         40.43932        34.53565        -1.32915
O         49.23109        33.45152        -2.24770
H         49.09240        34.38763        -2.49798
