         210
 CSIRO Nanostructure Databank - Neutral Graphene Oxide Data Set
C         30.70326        32.11684         1.77000
C         30.50247        33.20064         1.16741
C         30.26324        36.04080        -0.35008
C         30.55187        37.20793        -0.75229
C         30.46688        40.31097        -0.69514
C         30.39351        41.56127        -0.64370
C         32.98140        29.23974         1.53010
C         32.01545        29.88084         2.00673
C         32.74058        31.71366         0.59759
C         31.76032        31.20669         1.56077
C         32.36867        32.84549        -0.17623
C         31.24177        33.70992         0.06273
C         32.99500        35.95781        -1.27269
C         31.02177        34.90056        -0.67171
C         32.91274        37.38824        -1.04439
C         31.64595        38.07726        -0.87714
C         32.81526        40.26059        -0.57733
C         31.61474        39.48420        -0.73001
C         32.78664        41.69341        -0.45563
C         31.51481        42.41568        -0.51479
C         32.76410        44.37538        -0.27695
C         31.64664        43.81859        -0.42654
C         35.45671        27.47705         0.77378
C         35.23761        28.84575         0.52168
C         34.12785        29.63127         0.79193
C         35.23944        31.68052        -0.04803
C         34.02130        31.02808         0.36525
C         35.30674        33.09752        -0.37712
C         34.20507        33.80365        -0.88864
C         35.43194        35.93619        -0.90614
C         34.15542        35.22378        -0.99619
C         35.40215        37.47019        -0.84555
C         34.09033        38.14246        -0.77465
C         35.26798        40.27623        -0.24049
C         34.06567        39.55056        -0.50535
C         35.27520        41.68230        -0.13963
C         34.02792        42.40189        -0.26834
C         35.26003        44.53164         0.12491
C         34.05480        43.83077        -0.14966
C         35.41790        45.92416         0.29321
C         37.81300        27.30660         0.43021
C         36.49103        26.79181         0.52735
C         37.75825        28.83317         0.62131
C         36.52253        29.46376        -0.06003
C         37.73982        31.64502         0.01963
C         36.50076        30.98050         0.03097
C         37.76736        33.09885        -0.02769
C         36.55602        33.81293        -0.23443
C         37.80621        35.95907        -0.23836
C         36.61534        35.22282        -0.42732
C         37.79045        37.41323        -0.21039
C         36.60295        38.11427        -0.32111
C         37.79083        40.28850        -0.32433
C         36.54143        39.54899         0.14077
C         37.76519        41.72616         0.13685
C         36.51920        42.39952         0.12220
C         37.70455        44.53855         0.61434
C         36.50161        43.83355         0.29735
C         37.76183        45.95711         0.71674
C         36.48732        46.53991         0.51901
C         40.19433        24.53406        -0.20698
C         39.20951        25.23980         0.05670
C         40.29222        27.34038         0.15119
C         38.99524        26.64533         0.21452
C         40.28347        28.77434         0.17243
C         39.04233        29.51685         0.21714
C         40.27528        31.61817        -0.07217
C         38.99193        30.89342         0.05431
C         40.25372        33.10947        -0.02309
C         38.97388        33.83626         0.04034
C         40.26268        35.98402         0.13890
C         39.01143        35.24926         0.01624
C         40.26568        37.40904         0.14527
C         39.03771        38.13898         0.03237
C         40.26528        40.26065         0.24879
C         39.05148        39.53816         0.05330
C         40.24097        41.68736         0.43988
C         38.98511        42.36858         0.45527
C         40.27742        44.53745         1.03766
C         38.93361        43.77293         0.88341
C         40.26674        45.99986         0.86887
C         39.00690        46.66695         0.80807
C         40.25274        48.71628         0.55655
C         39.18118        48.05535         0.65223
C         42.74253        24.60993        -0.72084
C         41.57369        25.04301         0.14225
C         42.73098        27.35651        -0.12663
C         41.51344        26.63039         0.02150
C         42.76394        28.77623         0.05147
C         41.52726        29.47201         0.14998
C         42.74429        31.58245         0.37604
C         41.54622        30.89972         0.21062
C         42.72047        33.04614         0.61058
C         41.46883        33.82931         0.44010
C         42.71555        35.99250         0.26289
C         41.49258        35.29993         0.25098
C         42.73774        37.40605         0.26329
C         41.49988        38.12116         0.24162
C         42.73946        40.26120         0.37800
C         41.49904        39.54854         0.30308
C         42.73410        41.67589         0.49580
C         41.49107        42.39780         0.60260
C         42.76126        44.53489         0.83857
C         41.52493        43.80350         0.78135
C         42.74372        45.95851         0.94193
C         41.51486        46.69435         0.78303
C         42.85321        48.67382         0.55238
C         41.53003        48.14466         0.57289
C         43.74698        25.33690        -0.77327
C         45.16832        27.43364        -0.53099
C         43.97511        26.72599        -0.51740
C         45.25332        28.81899        -0.07123
C         44.00874        29.49060         0.11265
C         45.25121        31.58026         0.54310
C         44.01495        30.90091         0.36462
C         45.25214        33.06580         0.88712
C         44.00710        33.75904         0.37990
C         45.26512        35.96922         0.32744
C         43.98922        35.24093         0.21145
C         45.23972        37.40945         0.28929
C         43.99016        38.11965         0.28315
C         45.21918        40.25861         0.29143
C         43.98138        39.53720         0.32945
C         45.22269        41.67238         0.36163
C         43.98040        42.39253         0.54183
C         45.29152        44.46990         0.85084
C         43.98757        43.78574         0.75769
C         45.30355        45.96583         1.12835
C         44.02365        46.72756         1.37686
C         43.92461        48.04979         0.65884
C         47.54867        27.51204        -0.69436
C         46.46038        26.94067        -0.88339
C         47.74744        28.69834         0.07707
C         46.49993        29.47316         0.22082
C         47.70235        31.69165         0.77253
C         46.48896        30.88406         0.56688
C         47.70949        33.12311         0.51972
C         46.49288        33.81408         0.44787
C         47.71242        35.96113        -0.10791
C         46.45381        35.23275         0.29661
C         47.75925        37.38646         0.44487
C         46.45449        38.13080         0.25825
C         47.69389        40.25051        -0.02210
C         46.45864        39.53735         0.19729
C         47.68084        41.66275        -0.09751
C         46.46196        42.37986         0.18076
C         47.67571        44.50344        -0.05425
C         46.48390        43.78704         0.29253
C         47.49011        45.91249         0.15416
C         46.50650        46.56828         0.52781
C         50.27907        28.77282         0.52350
C         48.90051        28.95979         0.80467
C         50.20597        31.69929         1.07570
C         48.89998        31.10801         1.20995
C         50.20278        33.18046         0.93571
C         48.96255        33.86406         0.53686
C         50.20863        35.96009        -0.00726
C         48.99315        35.22668         0.24143
C         50.13350        37.37875        -0.35055
C         48.95571        38.11934        -0.12513
C         50.09917        40.25689        -0.63770
C         48.91427        39.53007        -0.26534
C         50.11177        41.68280        -0.62127
C         48.89575        42.37855        -0.39632
C         50.08981        44.36279        -0.84006
C         48.82478        43.82648        -0.45400
C         51.22405        29.53258         0.85767
C         52.55368        31.76691         0.74708
C         51.40459        30.93681         0.93821
C         52.60519        32.96669         0.41099
C         51.57297        33.96864         0.61301
C         52.49293        36.01806        -0.63564
C         51.45149        35.26629        -0.02595
C         52.39791        37.21603        -0.98333
C         51.29601        38.10073        -0.83656
C         52.32971        40.36083        -1.38249
C         51.26558        39.48672        -0.99755
C         52.42304        41.59268        -1.51678
C         51.49341        42.46566        -0.69655
C         51.16613        43.85540        -1.20124
O         48.74719        29.87686         1.87819
O         35.66139        36.75946        -2.10171
O         50.98866        33.89768         1.92790
O         45.59725        45.06760         2.21581
O         44.07468        34.28991        -0.96627
O         39.52565        44.04033         2.19210
O         33.10384        33.05556        -1.35258
O         41.93863        33.44025         1.78951
O         31.90463        35.18832        -1.75562
O         40.41273        32.42438        -1.31650
O         47.66185        36.08444        -1.55808
H         47.39798        35.21868        -1.93399
O         37.59866        29.07517         2.04105
H         38.34807        28.66171         2.51786
O         47.96211        37.27031         1.88076
H         48.01332        38.17261         2.25963
O         51.98982        42.55600         0.61085
H         52.84110        43.03916         0.60274
O         36.58521        39.53649         1.59776
H         35.74590        39.15898         1.93320
O         43.90121        46.96331         2.77485
H         44.58190        46.42560         3.23839
O         36.59772        29.12557        -1.45997
H         35.86209        29.56520        -1.93451
O         41.85459        24.74192         1.48108
H         41.89815        23.77044         1.59340
O         45.19098        33.16671         2.33908
H         45.99445        32.74413         2.70933
O         37.74846        40.31422        -1.77906
H         38.58907        40.69613        -2.10667
