         429
 CSIRO Nanostructure Databank - Neutral Graphene Oxide Data Set
C          1.11728         3.46745         0.79933
C         -0.08280         4.16743         0.77698
C          1.10987         6.29976         0.64791
C         -0.09304         5.56349         0.69261
C          1.12216         7.74968         0.54883
C         -0.06845         8.49682         0.37756
C          1.17521        10.60173         0.34814
C         -0.04107         9.87086         0.24510
C          1.21894        12.03456         0.12817
C          0.03641        12.76996        -0.17665
C          1.36249        14.72964        -0.84873
C          0.08335        14.04811        -0.66334
C          1.40756        16.26391        -1.08558
C          0.15605        17.02900        -1.09158
C          1.40432        19.12973        -0.96529
C          0.16830        18.37990        -1.00139
C          1.41476        20.51649        -1.11058
C          0.21720        21.28583        -1.27807
C          1.46637        23.40213        -1.20740
C          0.24382        22.64925        -1.37912
C          1.44425        24.84741        -1.17267
C          0.27023        25.58318        -1.43341
C          1.43528        27.70469        -1.12518
C          0.27051        26.97232        -1.41371
C          1.41005        29.16485        -1.03957
C          0.21180        29.89199        -1.23537
C          1.35100        32.00168        -0.80267
C          0.19084        31.27236        -1.14477
C          1.32772        33.45417        -0.69890
C          0.18690        34.21800        -0.99022
C          1.33349        36.33241        -0.52504
C          0.20526        35.61855        -0.95528
C          1.38432        37.76198        -0.79819
C          3.58151         3.45787         0.72400
C          2.35088         4.16312         0.74881
C          3.59251         6.30564         0.66579
C          2.34649         5.59474         0.69460
C          3.60056         7.72312         0.67212
C          2.35558         8.45744         0.62223
C          3.62460        10.61600         0.95423
C          2.36668         9.87555         0.58016
C          3.67673        12.03049         0.43154
C          2.48450        12.72035         0.10292
C          3.78047        14.81892        -0.18929
C          2.56428        14.09242        -0.29665
C          3.82405        16.25953        -0.39523
C          2.64412        16.98627        -0.72938
C          3.87063        19.11601        -0.58054
C          2.64578        18.39584        -0.77286
C          3.90891        20.53426        -0.71652
C          2.72488        21.23524        -1.32467
C          3.88365        23.41595        -0.74741
C          2.66809        22.71406        -1.02724
C          3.86650        24.84510        -0.67200
C          2.65066        25.55873        -0.89937
C          3.85312        27.68400        -0.57266
C          2.64486        26.98969        -0.87092
C          3.92232        29.18744        -0.67893
C          2.58024        29.88007        -0.71390
C          3.76095        31.98681        -0.12273
C          2.55282        31.28436        -0.55900
C          3.71813        33.43253         0.00115
C          2.51449        34.13651        -0.28298
C          3.58166        36.15899         0.51548
C          2.46288        35.55494        -0.08422
C          3.67628        38.24518        -0.02792
C          2.45959        38.60695        -0.72961
C          6.02219         3.40618         0.49111
C          4.81178         4.12775         0.62525
C          6.04709         6.27395         0.52353
C          4.82693         5.57982         0.61806
C          6.06419         7.68364         0.51747
C          4.84650         8.42481         0.61756
C          6.10643        10.54850         0.59410
C          4.88098         9.84305         0.65780
C          6.12201        11.97229         0.61684
C          4.91820        12.71033         0.42596
C          6.21452        14.83657         0.29359
C          4.96310        14.12975         0.19387
C          6.24098        16.26945         0.15136
C          5.02985        16.97389        -0.15780
C          6.27627        19.12673        -0.04672
C          5.06090        18.40373        -0.26110
C          6.28998        20.54801        -0.12091
C          5.08559        21.25206        -0.46158
C          6.29645        23.41501        -0.25286
C          5.09108        22.70297        -0.50940
C          6.29196        24.84571        -0.22831
C          5.07005        25.55765        -0.40000
C          6.25614        27.71699         0.02010
C          5.03957        26.99023        -0.32129
C          6.20956        29.10003         0.32414
C          4.85033        29.77988         0.38081
C          6.05163        31.98966         0.82703
C          4.89273        31.28731         0.24714
C          6.10846        33.46350         0.69259
C          4.89398        34.14310         0.37813
C          6.05198        36.33843         0.74487
C          4.85371        35.56080         0.55065
C          6.08968        37.76685         0.38519
C          4.99250        38.45953        -0.31239
C          8.43325         3.33188         0.09048
C          7.27066         4.04684         0.30206
C          8.32971         6.24522        -0.48966
C          7.37780         5.54540         0.50027
C          8.46359         7.67870        -0.00588
C          7.32794         8.38830         0.39128
C          8.56678        10.54870         0.32932
C          7.34865         9.82800         0.47450
C          8.62788        11.93823         0.44469
C          7.40612        12.68593         0.91175
C          8.65779        14.81230         0.49994
C          7.41065        14.13581         0.52114
C          8.66910        16.24480         0.49335
C          7.44949        16.97620         0.34448
C          8.67236        19.13918         0.52462
C          7.48362        18.42559         0.27353
C          8.70364        20.56310         0.44587
C          7.50457        21.26678         0.10501
C          8.72186        23.41458         0.20139
C          7.50967        22.69705         0.01472
C          8.71672        24.84198         0.10200
C          7.52047        25.56545        -0.04674
C          8.65925        27.74312         0.42727
C          7.48814        27.01648         0.08677
C          8.60555        29.09816         0.79606
C          7.36940        29.77617         0.74812
C          8.58696        31.97199         1.25454
C          7.30884        31.21313         1.13464
C          8.48898        33.45774         1.42349
C          7.25538        34.18976         1.01372
C          8.48675        36.37813         1.30869
C          7.24756        35.62829         1.00659
C          8.49021        37.89844         1.02875
C          7.28024        38.45556         0.44118
C         10.97701         3.44036         0.11940
C          9.69744         3.99207        -0.29453
C         10.96445         6.20382        -0.59908
C          9.67655         5.49567        -0.63623
C         10.93247         7.66381        -0.70644
C          9.68533         8.40954        -0.33900
C         11.09834        10.50549        -0.00660
C          9.84567         9.74767         0.35516
C         11.08851        11.92065         0.26056
C          9.88503        12.63435         0.40101
C         11.10437        14.81746         0.36518
C          9.88806        14.08787         0.48200
C         11.10905        16.25180         0.48561
C          9.89621        16.94058         0.61409
C         11.18264        19.09741         1.05976
C          9.83710        18.36225         1.11319
C         11.18978        20.60678         1.00551
C          9.91136        21.31394         0.69405
C         11.16572        23.45952         0.85098
C          9.92496        22.69917         0.52972
C         11.22755        24.88895         0.55194
C          9.99309        25.56938         0.16092
C         11.17382        27.67216         1.02811
C          9.96579        27.07344         0.32323
C         11.13873        29.16954         0.95326
C          9.82233        29.78909         1.39333
C         11.08363        31.98566         1.40183
C          9.77673        31.29809         1.27632
C         11.07280        33.48626         1.47163
C          9.78129        34.24332         1.50453
C         10.95760        36.38668         0.93344
C          9.79804        35.69775         1.19919
C         10.98263        37.84958         0.80661
C          9.77074        38.55134         0.77842
C         13.39567         3.53698         0.38825
C         12.16546         4.13142        -0.04996
C         13.46816         6.18338        -0.62861
C         12.18777         5.52517        -0.47777
C         13.50887         7.63251        -1.01350
C         12.22574         8.41223        -0.81017
C         13.58202        10.45257        -0.03153
C         12.25150         9.81627        -0.35974
C         13.46668        11.93307        -0.45698
C         12.40146        12.64896         0.40067
C         13.51557        14.85581        -0.03966
C         12.33150        14.13340         0.15142
C         13.52426        16.26276         0.05187
C         12.35518        16.97919         0.39077
C         13.61044        19.11772         0.38750
C         12.39668        18.39185         0.59498
C         13.64873        20.57311         0.53694
C         12.48271        21.29125         0.73893
C         13.81899        23.56641         0.98261
C         12.50845        22.74135         1.00578
C         13.68678        24.91335         0.28409
C         12.44295        25.60419         0.46927
C         13.59656        27.76100         0.28147
C         12.43034        27.03640         0.49331
C         13.58301        29.21481         0.47608
C         12.32107        29.89312         0.78551
C         13.55346        32.05188         0.96723
C         12.33178        31.30907         0.96831
C         13.53747        33.45548         1.02012
C         12.25368        34.16764         0.87579
C         13.51321        36.36145         0.48769
C         12.20626        35.63513         0.62034
C         13.49657        37.89044         0.54046
C         12.20297        38.54993         0.71667
C         15.75916         3.55123         0.96187
C         14.61555         4.16244         0.25970
C         15.93008         6.19481        -0.47596
C         14.67029         5.49858        -0.34522
C         16.01885         7.62410        -0.53393
C         14.85204         8.39115        -1.10204
C         16.01039        10.48907        -0.42089
C         14.82642         9.81318        -0.58995
C         16.05167        11.91955        -0.23848
C         14.80088        12.66000        -0.49147
C         16.07686        14.79682        -0.02417
C         14.79251        14.14655        -0.32369
C         16.03710        16.25857         0.19451
C         14.79446        16.97903        -0.30280
C         16.03571        19.12717        -0.08160
C         14.79495        18.43171         0.06505
C         16.00387        20.56739        -0.11762
C         14.88853        21.27803         0.26167
C         16.05603        23.43653        -0.33839
C         15.11238        22.73970         0.63631
C         15.95138        24.82740        -0.66071
C         14.79114        25.62418        -0.22071
C         15.95176        27.86771        -0.40102
C         14.77636        27.06861        -0.18534
C         16.03602        29.21128         0.22648
C         14.76160        29.94045         0.43785
C         16.01290        32.06916         0.64000
C         14.81572        31.36027         0.73067
C         16.11054        33.48975         0.97858
C         14.75082        34.24551         1.15940
C         15.95834        36.39482         0.91596
C         14.75790        35.68259         0.86983
C         15.91959        37.84606         1.01481
C         14.74665        38.54082         0.94435
C         18.27372         3.45825         1.29463
C         17.04336         3.63000         0.52323
C         18.37880         6.11499        -0.13025
C         17.18816         5.53262        -0.51639
C         18.35482         7.52660         0.22559
C         17.18816         8.28751        -0.23544
C         18.41960        10.44004         0.27344
C         17.33098         9.76036        -0.58202
C         18.50821        11.93265        -0.00214
C         17.25898        12.63313        -0.11122
C         18.55754        14.79987        -0.32920
C         17.25016        14.08908        -0.06624
C         18.58291        16.29351        -0.04763
C         17.32983        17.02486         0.17322
C         18.57004        19.22683         0.00629
C         17.26944        18.46750        -0.10357
C         18.49102        20.58487        -0.64174
C         17.14270        21.21355        -0.84106
C         18.27318        23.32271        -1.42822
C         17.15946        22.71004        -0.78737
C         18.13475        24.67430        -1.85019
C         16.90505        25.32512        -1.55538
C         18.22522        28.17043        -1.43423
C         16.95723        27.53792        -1.31346
C         18.58402        29.27469        -0.44717
C         17.32437        29.96115         0.10448
C         18.42903        32.26538        -0.27303
C         17.20352        31.45070         0.00538
C         18.45744        33.69591         0.10707
C         17.27942        34.30915         0.60541
C         18.43559        36.48165         0.62887
C         17.23238        35.70969         0.79992
C         18.43035        37.88359         0.88036
C         17.19009        38.55679         1.41746
C         19.39860         4.18840         1.10279
C         20.86797         6.05645         0.21266
C         19.61301         5.23801         0.00614
C         20.92723         7.39647         0.29464
C         19.72895         8.26483         0.41606
C         20.91142        10.42154        -0.05622
C         19.74343         9.70396         0.16394
C         20.92893        11.82976        -0.04634
C         19.74680        12.59633         0.01016
C         21.01081        14.84494        -0.26083
C         19.78872        14.10681         0.25359
C         20.97534        16.16994        -0.51189
C         19.76539        16.98110        -0.31106
C         20.90356        19.14025        -0.86087
C         19.78289        18.41805        -0.41192
C         20.85098        20.50002        -1.15973
C         19.61202        21.22252        -1.14409
C         20.51299        23.24322        -2.36115
C         19.48771        22.59633        -1.67194
C         20.37233        24.57211        -2.81788
C         19.21026        25.28738        -2.56021
C         20.50023        28.36303        -2.34480
C         19.25511        27.67653        -2.24373
C         20.68029        29.60208        -1.75808
C         19.65384        30.21699        -0.98379
C         20.84382        32.40095        -0.80347
C         19.69139        31.57296        -0.63687
C         20.81724        33.74947        -0.54296
C         19.64046        34.43538        -0.08164
C         20.80927        36.64611         0.04689
C         19.64501        35.85091         0.20594
C         20.77896        38.00824         0.28708
C         19.58911        38.62917         0.70855
O         13.61302        37.14272        -0.74144
O         16.66028        26.52962        -2.23491
O         11.31702        19.89182         2.29530
O          1.55233        15.31968        -2.18951
O          6.35277        31.50375         2.21433
O         15.87590        22.59155         1.82397
O          9.64506         4.48756        -1.69026
O         16.59518        16.68628         1.45118
O          8.35420        37.34025         2.39062
O         14.86528        13.53542        -1.68193
O         15.58701        33.84416         2.29091
O          9.99951         8.19006        -1.75343
O         19.08656        26.58300        -3.10538
O         16.94656        29.40069         1.40075
O         10.22071        26.50829        -0.98392
O         11.98131        34.66958        -0.48999
O          9.98960         9.44352         1.73432
O         18.89161         7.86712         1.54831
O         17.41362        31.96810        -1.35152
O          9.00905        33.94125         2.70681
O         11.70602        23.08193         2.16701
O         12.73164         8.07538        -2.17356
O          3.42627        37.41941         1.09193
O         11.31612        32.72743         2.67958
O         17.20589         4.14722        -0.78900
O         12.94528        11.89516        -1.80032
H         13.39219        12.61821        -2.30331
O         18.71061        14.68720        -1.78112
H         17.86104        14.93821        -2.20257
O          3.58139        10.73322         2.43669
H          2.79374        11.27348         2.66046
O         17.71142         9.80594        -1.97387
H         16.96023         9.41905        -2.48808
O         15.18905         8.49732        -2.52683
H         14.32766         8.62077        -2.99705
O         11.07778        27.26305         2.42703
H         10.54163        27.94932         2.90103
O         18.75670        19.49086         1.44974
H         18.02902        20.08309         1.74270
O          4.56500        29.48311        -1.96058
H          3.99984        29.11596        -2.67223
O         17.93296        10.33554         1.64031
H         18.64522        10.62494         2.24677
O         13.76386        10.25654         1.39181
H         13.09522        10.79281         1.88202
O         14.92571        16.91360        -1.76929
H         14.14808        17.36306        -2.16226
O         19.83246         4.52469        -1.23583
H         18.99379         4.04599        -1.43916
O          8.00162         5.72914         1.80378
H          7.38614         5.39678         2.48993
O          9.71308        29.54324         2.85054
H         10.22081        30.24814         3.31011
O          4.30142        29.50129         1.69372
H          4.84748        30.00745         2.33995
O          2.96043        21.16080        -2.79046
H          2.19217        21.59074        -3.22405
O         16.83197        20.89717        -2.26800
H         17.52316        21.33057        -2.81501
O          7.69505         6.29007        -1.77975
H          8.34600         6.66428        -2.41351
O         12.77710        12.57579         1.81864
H         12.04534        12.97085         2.33968
O         17.14984        39.93662         1.04885
H         17.06830        39.99059         0.07471
O         13.99362        24.05680         2.32765
H         14.85547        23.63721         2.63277
O         19.24551        28.61575         0.67150
H         18.56288        28.51042         1.37948
O         19.74324        14.27374         1.69336
H         20.59751        13.97519         2.06748
O          7.52263        12.69400         2.39292
H          7.68074        11.76661         2.67616
O          9.48292        18.19702         2.52204
H          9.93638        18.92813         3.00904
H          1.11975         2.36927         0.84947
H         -1.03594         3.62186         0.81723
H         -1.06118         6.08118         0.67018
H         -1.03653         7.98283         0.30982
H         -0.98821        10.39609         0.06551
H         -0.94471        12.28512        -0.08569
H         -0.84297        14.53769        -0.99050
H         -0.79744        16.49998        -1.22134
H         -0.78876        18.91713        -1.02866
H         -0.75795        20.78135        -1.30744
H         -0.70644        23.18270        -1.50808
H         -0.67099        25.06792        -1.66395
H         -0.67364        27.49133        -1.62331
H         -0.72260        29.37063        -1.47970
H         -0.75694        31.79596        -1.32675
H         -0.73874        33.72407        -1.31522
H         -0.68149        36.17098        -1.29974
H          0.48202        38.15381        -1.29699
H          3.56708         2.35790         0.74212
H          2.38981        39.59505        -1.21010
H          5.97943         2.30728         0.44249
H          5.27500        39.18390        -1.09095
H          8.40769         2.23066         0.09762
H          7.34703        39.45356        -0.01771
H         10.98881         2.46827         0.63514
H          9.77410        39.61890         0.51333
H         13.34677         2.54280         0.85710
H         12.18298        39.64810         0.77729
H         15.54520         3.06611         1.92677
H         14.73721        39.61486         1.18414
H         18.23415         2.76471         2.15057
H         17.25294        38.53325         2.54337
H         20.24624         4.00718         1.78340
H         21.81044         5.48890         0.16537
H         21.91477         7.88236         0.33818
H         21.87306         9.89192        -0.12598
H         21.90653        12.33094        -0.07420
H         21.96580        14.30761        -0.36529
H         21.89860        16.67327        -0.83342
H         21.85464        18.61657        -1.03452
H         21.76725        21.00035        -1.50264
H         21.45563        22.71822        -2.56934
H         21.19276        25.04576        -3.37253
H         21.28432        27.93938        -2.98629
H         21.59663        30.16399        -1.99013
H         21.79216        31.94453        -1.11868
H         21.74648        34.31828        -0.67987
H         21.75306        36.18565        -0.27332
H         21.68977        38.60861         0.15557
H         19.56777        39.70945         0.90966
