         200
 CSIRO Nanostructure Databank - Neutral Graphene Oxide Data Set
C        -11.09818         0.63474         0.06285
C         -9.86100         1.39115        -0.07261
C         -8.63883         0.67253        -0.20328
C         -7.40511         1.35740        -0.19606
C         -6.16383         0.63980        -0.15265
C         -4.93325         1.34985         0.09273
C         -3.72774         0.65274         0.24822
C         -2.53503         1.33444         0.74841
C         -1.22842         0.63731         0.78129
C         -0.03738         1.37760         0.84749
C          1.23401         0.67580         1.10748
C          2.50536         1.35852         0.85936
C          3.70275         0.62235         0.97739
C          4.96201         1.38381         1.02756
C          6.31363         0.60986         0.90285
C          7.48552         1.35509         0.43843
C          8.66655         0.62825         0.12634
C          9.87785         1.35276        -0.15592
C         11.08182         0.60938        -0.42678
C         -9.85158         2.78703        -0.02171
C         -8.63937         3.52887        -0.18539
C         -7.39383         2.78957        -0.24110
C         -6.15622         3.46605        -0.24977
C         -4.94252         2.79744         0.07883
C         -3.73667         3.54227         0.27188
C         -2.55497         2.84959         0.83367
C         -1.23910         3.60944         1.01869
C          0.00679         2.79595         0.72667
C          1.24072         3.48241         0.60175
C          2.48993         2.76774         0.62944
C          3.72694         3.47938         0.49397
C          4.96668         2.79671         0.63247
C          6.19800         3.47951         0.43744
C          7.44539         2.76115         0.34840
C          8.65821         3.47427         0.04138
C          9.86233         2.74594        -0.16115
C         -8.63781         4.93076        -0.18077
C         -7.45857         5.67350        -0.60371
C         -6.13003         4.86981        -0.66010
C         -4.83701         5.60452        -0.57859
C         -3.66234         4.91291        -0.01209
C         -2.42702         5.64579         0.10251
C         -1.21935         4.97117         0.37973
C          0.01883         5.64618         0.29742
C          1.25171         4.91550         0.41229
C          2.48056         5.60736         0.25204
C          3.72089         4.89562         0.29644
C          4.95421         5.59734         0.16381
C          6.18833         4.88693         0.20008
C          7.42165         5.59375        -0.00779
C          8.63297         4.87731        -0.07591
C         -7.37015         7.14447        -0.47484
C         -6.18714         7.82703        -0.48792
C         -4.88457         7.11303        -0.52511
C         -3.68396         7.80347         0.01620
C         -2.40822         7.07124        -0.02898
C         -1.20076         7.78206        -0.00237
C          0.03349         7.06092         0.06543
C          1.26869         7.74995        -0.03347
C          2.49100         7.02905         0.04469
C          3.72925         7.72340        -0.09148
C          4.95355         7.01475        -0.03489
C          6.19921         7.71447        -0.19144
C          7.39837         7.00575        -0.18246
C         -6.11558         9.28508        -0.52570
C         -4.95292         9.97675        -0.43507
C         -3.67865         9.32854        -0.04766
C         -2.38213         9.95763        -0.24971
C         -1.19215         9.23217        -0.16021
C          0.06888         9.88514        -0.29324
C          1.27641         9.18129        -0.22972
C          2.53067         9.85053        -0.35189
C          3.73113         9.15217        -0.29153
C          4.99761         9.83014        -0.42538
C          6.17447         9.14456        -0.37964
C        -11.11369        -0.72726         0.11054
C         -9.91018        -1.51512        -0.04444
C         -8.67093        -0.79538        -0.52134
C         -7.39653        -1.50921        -0.17181
C         -6.17568        -0.79512        -0.13280
C         -4.94413        -1.52032        -0.00048
C         -3.63139        -0.78695        -0.16704
C         -2.42247        -1.50797         0.38736
C         -1.22226        -0.80267         0.68829
C         -0.01441        -1.53971         0.81715
C          1.24504        -0.86470         1.15300
C          2.53179        -1.55908         0.96890
C          3.72159        -0.81227         1.03915
C          5.02180        -1.53777         1.05938
C          6.27559        -0.83919         0.73957
C          7.43690        -1.52386         0.34620
C          8.65383        -0.79335         0.09676
C          9.85779        -1.50069        -0.23182
C         11.07015        -0.75340        -0.46104
C         -9.89660        -2.88089         0.07595
C         -8.66707        -3.64297        -0.03485
C         -7.42164        -2.91433        -0.06977
C         -6.19343        -3.63651         0.00066
C         -4.96146        -2.90063         0.07655
C         -3.71614        -3.63543         0.38997
C         -2.42186        -2.91717         0.42484
C         -1.22262        -3.64501         0.49747
C          0.01253        -2.93885         0.58612
C          1.26168        -3.62599         0.46008
C          2.50147        -2.96953         0.64534
C          3.71798        -3.69192         0.43903
C          4.99892        -3.05607         0.74310
C          6.23430        -3.69073         0.24721
C          7.42991        -2.95810         0.15421
C          8.64476        -3.63696        -0.21604
C          9.84553        -2.89141        -0.35984
C         -8.64958        -5.03606        -0.03177
C         -7.42369        -5.76684        -0.12973
C         -6.20635        -5.04675        -0.09995
C         -4.91738        -5.74227        -0.43154
C         -3.72680        -5.11888         0.25420
C         -2.45340        -5.84044         0.15845
C         -1.22236        -5.14945         0.67778
C          0.02011        -5.81467         0.16713
C          1.21955        -4.98677        -0.18284
C          2.50234        -5.75955        -0.11471
C          3.71890        -5.06459         0.04308
C          4.96194        -5.77301        -0.13783
C          6.19977        -5.06953        -0.09901
C          7.42321        -5.75730        -0.40813
C          8.62636        -5.02798        -0.44293
C         -7.39430        -7.19788        -0.24037
C         -6.19533        -7.92276        -0.29198
C         -4.93582        -7.23585        -0.27573
C         -3.72412        -7.91662        -0.26769
C         -2.46172        -7.19966        -0.11734
C         -1.22257        -7.91960        -0.17875
C          0.01115        -7.18011        -0.12976
C          1.24740        -7.87455        -0.39720
C          2.48429        -7.15988        -0.34279
C          3.71548        -7.86657        -0.50397
C          4.94684        -7.16189        -0.43878
C          6.18532        -7.85910        -0.67878
C          7.38684        -7.15711        -0.67384
C         -6.15439        -9.36407        -0.34452
C         -4.96742       -10.04320        -0.39151
C         -3.69740        -9.35832        -0.35433
C         -2.47961       -10.02758        -0.43673
C         -1.22306        -9.32760        -0.40545
C          0.00466        -9.99232        -0.59772
C          1.23771        -9.28431        -0.60744
C          2.47701        -9.96026        -0.80838
C          3.69437        -9.27828        -0.76331
C          4.95263        -9.95535        -0.97125
C          6.13587        -9.27797        -0.94018
O          5.78903         1.07974         2.18980
O         -3.85127         8.57833         1.23074
O         -1.27018        -5.34964         2.14457
H         -2.17017        -5.05228         2.42491
O         -6.88520         5.15047        -1.86291
O         -3.38850        -0.76334        -1.63152
H         -4.21237        -0.44563        -2.06014
O          1.03562        -4.67495        -1.64405
H          1.06513        -5.53228        -2.12225
O          5.11844        -2.53864         2.11428
O         -3.93227        -4.51918         1.58078
O         -2.85584         2.05866         2.02445
O         -4.67699        -5.48486        -1.86332
H         -5.41739        -5.88865        -2.36381
O         -4.55845         6.42067        -1.77093
O         -1.13689         3.90667         2.45085
H         -1.53457         3.13495         2.92018
O          1.19373        -0.06163         2.37346
O         -8.74447        -0.85311        -2.00594
H         -9.55438        -0.36500        -2.26836
H         11.99144        -1.31175        -0.68295
H         12.01149         1.16509        -0.61764
H         10.78995         3.29902        -0.37184
H          9.56960         5.41911        -0.27471
H          8.34911         7.54075        -0.32553
H          7.13218         9.67424        -0.48964
H          4.99388        10.92037        -0.57135
H          2.54102        10.94098        -0.49914
H          0.08866        10.97650        -0.43212
H         -2.34745        11.01695        -0.54628
H         -4.95498        11.06916        -0.56933
H         -7.05355         9.82697        -0.72106
H         -8.31451         7.70550        -0.39155
H         -9.54978         5.47958         0.09721
H        -10.80020         3.33366         0.08648
H        -12.03508         1.19827         0.18470
H        -12.06173        -1.25808         0.28804
H        -10.82887        -3.42183         0.30366
H         -9.59927        -5.59125         0.00288
H         -8.35005        -7.74326        -0.25227
H         -7.10554        -9.91677        -0.35990
H         -4.96648       -11.14200        -0.44893
H         -2.46920       -11.12252        -0.54872
H          0.01195       -11.08035        -0.76117
H          2.46972       -11.04571        -0.98952
H          4.93823       -11.03761        -1.16771
H          7.08326        -9.80989        -1.11228
H          8.32931        -7.68504        -0.88287
H          9.56615        -5.54565        -0.68615
H         10.77267        -3.41934        -0.62844
