         638
 CSIRO Nanostructure Databank - Neutral Graphene Oxide Data Set
C         23.08746        69.71953        -1.36706
C         23.07311        71.09365        -1.41250
C         21.86242        71.83608        -1.63934
C         23.02477        73.94941        -1.30001
C         21.84969        73.21426        -1.57175
C         25.67414        65.46849        -0.88270
C         25.59679        66.88620        -0.89464
C         24.39848        67.53978        -1.12661
C         25.59836        69.70424        -1.41102
C         24.33326        69.02048        -0.89412
C         25.52518        71.19805        -1.16367
C         24.32256        71.84734        -1.22097
C         25.44705        74.04056        -0.88888
C         24.26219        73.30728        -1.13569
C         27.94835        61.31579         0.29781
C         27.98539        62.69444         0.13349
C         26.86847        63.39605        -0.40720
C         28.03109        65.56519        -0.11984
C         26.84590        64.79709        -0.48275
C         28.03662        66.95384        -0.24562
C         26.82800        67.66010        -0.65306
C         28.12285        69.79693        -0.85594
C         26.83320        69.01709        -0.85140
C         27.89027        71.22986        -0.35702
C         26.82741        71.95524        -1.20464
C         27.89152        74.10593        -0.57136
C         26.70525        73.41238        -0.81156
C         30.33699        57.03164         0.34919
C         30.29403        58.45247         0.56955
C         29.09528        59.11722         0.70086
C         30.33584        61.27660         0.99065
C         29.00877        60.56820         1.06683
C         30.27784        62.75053         1.15078
C         29.13827        63.47533         0.56055
C         30.40305        65.61448         0.67506
C         29.18915        64.85649         0.38069
C         30.41062        67.04845         0.49084
C         29.23987        67.71683         0.05173
C         30.39804        69.88988         0.22712
C         29.25017        69.12210        -0.11406
C         30.36336        71.35793         0.09931
C         29.17817        72.01250        -0.26972
C         30.37126        74.14364        -0.39477
C         29.14556        73.42609        -0.41664
C         32.57240        52.76237        -0.44518
C         32.67360        54.15782        -0.07778
C         31.52609        54.91741         0.04471
C         32.79666        57.07204         0.22498
C         31.53107        56.34479         0.21208
C         32.76993        58.49942         0.47806
C         31.55901        59.16699         0.66609
C         32.82237        61.30593         1.04346
C         31.52433        60.59838         0.90830
C         32.86316        62.78739         1.29800
C         31.55836        63.52515         1.35679
C         32.81563        65.69006         1.46925
C         31.56516        64.96259         1.05544
C         32.80724        67.14835         1.10618
C         31.62002        67.80066         0.73084
C         32.75420        70.03733         1.10794
C         31.57447        69.23414         0.61428
C         32.78682        71.46814         0.62589
C         31.54676        72.12778         0.27535
C         32.89706        74.22357        -0.26998
C         31.56591        73.50102        -0.09785
C         35.50832        48.75875        -1.03892
C         35.31703        50.03908        -0.53893
C         34.04185        50.66619        -0.76939
C         35.43317        52.89009         0.48616
C         33.58700        51.83531        -0.14307
C         35.28448        54.36668         0.40018
C         33.99793        54.90648        -0.33234
C         35.25764        57.13005         0.04400
C         33.99038        56.40235         0.00063
C         35.25550        58.54547         0.15941
C         34.01432        59.25148         0.38353
C         35.18765        61.43595         0.04461
C         34.02023        60.62660         0.52689
C         35.24495        62.86586         0.52631
C         34.08092        63.56121         0.91447
C         35.25485        65.70528         0.71115
C         34.07321        64.96448         1.01490
C         35.27522        67.13871         0.82289
C         34.08874        67.88486         1.38865
C         35.22820        70.00003         0.70378
C         34.06487        69.32574         0.94218
C         35.23638        71.45204         0.30391
C         33.96167        72.16913         0.64446
C         35.29425        74.31094         0.66130
C         33.92731        73.67681         0.72678
C         38.06661        44.53501        -1.30567
C         38.01333        45.92157        -1.05114
C         36.79718        46.63377        -1.16978
C         37.90627        48.67359        -0.43738
C         36.73417        48.00961        -0.88554
C         37.84127        50.16572        -0.35677
C         36.50536        50.66447         0.23521
C         37.81069        52.91165         0.19511
C         36.54865        52.18270         0.19126
C         37.80816        54.29756         0.24230
C         36.55000        54.99339        -0.20006
C         37.74117        57.15908         0.14669
C         36.51272        56.46727         0.03938
C         37.72481        58.56752         0.08931
C         36.49410        59.27328         0.12304
C         37.70439        61.44477         0.04849
C         36.49507        60.70121         0.13818
C         37.66445        62.86873        -0.00248
C         36.45077        63.58554         0.27510
C         37.62267        65.77292        -0.17462
C         36.43155        65.00399         0.34233
C         37.68055        67.19116         0.29623
C         36.47182        67.86765         0.58633
C         37.70878        70.01948         0.57140
C         36.49179        69.30177         0.66252
C         37.71065        71.47766         0.61820
C         36.51037        72.17641         0.65696
C         37.76052        74.35950         1.03494
C         36.46791        73.61971         0.73709
C         40.53201        40.25596        -1.59422
C         40.63413        41.75471        -1.73672
C         39.32527        42.46950        -1.58404
C         40.58460        44.57040        -1.10671
C         39.28989        43.81429        -1.30231
C         40.42578        45.90565        -0.42824
C         39.20151        46.60691        -0.59702
C         40.29591        48.65847         0.25608
C         39.12515        47.98577        -0.25296
C         40.24700        50.05512         0.55508
C         39.05094        50.79581         0.29883
C         40.18177        52.91906         0.85739
C         39.02810        52.18829         0.43767
C         40.20217        54.31983         0.83760
C         39.00821        55.04197         0.46285
C         40.20297        57.19923         0.62573
C         38.99339        56.44440         0.36600
C         40.19691        58.58096         0.42396
C         39.01688        59.27165        -0.21192
C         40.17152        61.47914         0.10751
C         38.96499        60.75412         0.03491
C         40.16984        62.89114        -0.02976
C         38.90842        63.59565        -0.42808
C         40.12393        65.73580         0.09865
C         38.92025        65.04183        -0.04197
C         40.13213        67.15145         0.30581
C         38.91642        67.87635         0.37100
C         40.18457        70.01355         0.40959
C         38.93369        69.30961         0.51001
C         40.15514        71.45300         0.30008
C         38.97785        72.17854         0.49554
C         40.18922        74.32522         0.51105
C         39.01520        73.62410         0.60618
C         42.96734        36.00317        -1.85276
C         42.89568        37.35679        -1.47838
C         41.68968        38.08079        -1.56149
C         42.95717        40.21479        -1.10222
C         41.65159        39.49014        -1.36166
C         42.73223        41.46907        -0.23674
C         41.68655        42.37081        -0.84031
C         42.78197        44.32505         0.17766
C         41.68207        43.70198        -0.54541
C         42.61852        45.69234         0.78926
C         41.51440        46.52555         0.19014
C         42.64666        48.57453         1.05175
C         41.47836        47.91829         0.51728
C         42.58114        49.96348         1.35740
C         41.39156        50.69398         1.11965
C         42.56759        52.94342         1.74718
C         41.30422        52.14466         1.40486
C         42.59730        54.36938         1.41773
C         41.42260        55.05515         1.11071
C         42.64999        57.19793         1.10805
C         41.41736        56.50119         0.99793
C         42.64774        58.67621         1.14006
C         41.36538        59.38447         0.77542
C         42.63366        61.46723         0.25383
C         41.41987        60.80146         0.35886
C         42.64235        62.89946         0.00862
C         41.38157        63.61191         0.01686
C         42.62484        65.74997        -0.03692
C         41.38423        65.02496         0.00896
C         42.63562        67.11689         0.15852
C         41.41547        67.83851         0.66119
C         42.65328        70.01039         0.22133
C         41.40081        69.31756         0.36291
C         42.67381        71.42801         0.07695
C         41.40243        72.14206        -0.04566
C         42.74283        74.31881         0.25928
C         41.43347        73.70011         0.05746
C         45.47855        33.23691        -2.18587
C         44.26352        33.93306        -2.22860
C         45.35806        35.89338        -1.23796
C         44.17995        35.26708        -1.77540
C         45.29601        37.21332        -0.71797
C         44.07515        37.99792        -0.88697
C         45.03438        39.87272         0.46491
C         44.04395        39.32428        -0.54242
C         45.22605        41.38501         0.34756
C         44.04577        42.21586        -0.02210
C         45.11746        44.30144         0.95638
C         43.96064        43.64197         0.39143
C         45.11006        45.66511         1.21029
C         43.91567        46.44621         0.99932
C         45.07692        48.50441         1.85786
C         43.87083        47.81546         1.22645
C         45.10631        49.97814         1.57556
C         43.82343        50.67292         1.78276
C         45.12564        52.88757         1.54782
C         43.85732        52.18871         1.87526
C         45.13157        54.30784         1.38210
C         43.88726        55.09951         1.71104
C         45.11246        57.17279         0.88182
C         43.88105        56.51444         1.19338
C         45.13765        58.59055         0.64754
C         43.97566        59.43324         1.12512
C         45.07058        61.39328         0.03852
C         43.89735        60.77479         0.41602
C         45.00044        62.72274        -0.67944
C         43.82975        63.57237        -0.24031
C         45.06191        65.71211        -0.49017
C         43.88022        65.01861        -0.28557
C         45.05546        67.22806        -0.53950
C         43.95323        67.80688         0.35593
C         45.09943        69.99558         0.09718
C         43.87933        69.30476         0.19109
C         45.10644        71.41252         0.04096
C         43.89741        72.13777         0.02720
C         45.19272        74.27147         0.17390
C         43.92879        73.60304         0.10875
C         46.63310        33.84376        -1.70760
C         47.76911        35.84432        -0.78021
C         46.59785        35.18235        -1.22500
C         47.71346        37.15008        -0.28260
C         46.45359        37.80983        -0.18398
C         47.66790        39.85848         0.78686
C         46.37310        39.12367         0.48911
C         47.68058        41.32977         0.94029
C         46.37473        42.02020         1.07408
C         47.63347        44.23024         1.28416
C         46.33793        43.50407         1.27493
C         47.61904        45.59751         1.41529
C         46.34689        46.30738         1.81101
C         47.57478        48.51980         1.48593
C         46.38585        47.80616         1.59887
C         47.55990        49.96713         1.42909
C         46.30239        50.68556         1.47855
C         47.60636        52.86221         1.50181
C         46.29578        52.13180         1.42058
C         47.57848        54.28681         1.00751
C         46.31863        55.00505         1.04658
C         47.56842        57.02665         0.22449
C         46.29395        56.40134         0.75059
C         47.56444        58.53650         0.18550
C         46.32388        59.25477         0.28230
C         47.53295        61.35622        -0.19910
C         46.31906        60.67800         0.05169
C         47.56979        62.77906        -0.37250
C         46.31773        63.49875        -0.71716
C         47.68041        65.74493        -0.65925
C         46.33161        64.99969        -0.76643
C         47.59981        67.14891        -0.09555
C         46.37120        67.88085        -0.14280
C         47.56998        69.94846         0.62116
C         46.34288        69.23500         0.13008
C         47.66111        71.35621         0.08240
C         46.38912        72.12720        -0.11195
C         47.66934        74.23125         0.18238
C         46.42206        73.59441         0.07060
C         48.93047        37.86695         0.05730
C         50.22454        39.85659         0.83171
C         48.93446        39.15974         0.47590
C         50.14367        41.36734         0.78981
C         48.87000        42.05367         0.95545
C         50.08588        44.21457         1.00575
C         48.86956        43.49264         1.09910
C         50.11140        45.63156         1.14154
C         48.89840        46.34107         1.67363
C         50.03680        48.48519         1.13434
C         48.85416        47.81607         1.35866
C         50.09736        49.97450         1.34746
C         48.77483        50.68821         1.19151
C         49.92725        52.76628         0.36158
C         48.77449        52.05774         1.02006
C         50.01613        54.24319         0.69535
C         48.78896        54.95895         0.87867
C         50.06100        57.17559         0.72900
C         48.74527        56.47651         1.03301
C         50.04880        58.54371         0.16379
C         48.76719        59.21574         0.01784
C         49.97943        61.34728        -0.31623
C         48.77498        60.64863        -0.17278
C         50.00803        62.76395        -0.20010
C         48.76069        63.47136        -0.19937
C         50.05470        65.62906         0.11516
C         48.71151        64.93955         0.15179
C         50.06843        67.03394         0.22881
C         48.81489        67.77692         0.22259
C         50.06731        69.88311         0.51722
C         48.86014        69.19248         0.43576
C         50.09280        71.34361         0.53664
C         48.91165        72.08512         0.34785
C         50.14187        74.18352         0.41789
C         48.90841        73.51437         0.28785
C         51.30238        42.07891         0.66479
C         52.50603        44.22044         0.58593
C         51.32124        43.51629         0.73183
C         52.52859        45.64392         0.65391
C         51.29673        46.35048         0.92319
C         52.48972        48.49627         0.70898
C         51.29396        47.78638         0.95059
C         52.49919        49.93122         0.58231
C         51.27520        50.66749         0.71212
C         52.44300        52.74925         0.15427
C         51.24336        52.03155         0.47652
C         52.40694        54.16041         0.09877
C         51.23647        54.89086         0.48279
C         52.51226        57.07208         0.04891
C         51.32068        56.37053         0.56175
C         52.49837        58.47944        -0.11629
C         51.23389        59.18460        -0.14080
C         52.48888        61.35078        -0.45565
C         51.21524        60.59104        -0.70897
C         52.49402        62.73819        -0.28414
C         51.24650        63.46333        -0.12738
C         52.50615        65.57572         0.19267
C         51.26256        64.88863         0.05970
C         52.52911        66.98878         0.39874
C         51.30085        67.72642         0.39233
C         52.53477        69.84353         0.69180
C         51.31857        69.15760         0.52983
C         52.55905        71.29231         0.74709
C         51.33369        72.02790         0.61848
C         52.60231        74.13223         0.59502
C         51.35455        73.46401         0.55996
C         53.71664        46.35784         0.49269
C         54.92629        48.47915         0.30312
C         53.72840        47.77776         0.50835
C         54.94742        49.89166         0.19730
C         53.69782        50.61136         0.27629
C         54.91522        52.69752        -0.14750
C         53.69602        52.02973         0.06879
C         54.92269        54.12619        -0.46679
C         53.60843        54.88768        -0.33525
C         54.93312        57.02183        -0.25914
C         53.69228        56.34945        -0.17781
C         54.93407        58.44164        -0.24338
C         53.73108        59.15347        -0.31843
C         55.02624        61.33865        -0.41096
C         53.76196        60.60163        -0.75328
C         55.01017        62.81702        -0.72612
C         53.73232        63.47034        -0.25294
C         54.97521        65.52718         0.30546
C         53.74044        64.84389         0.07479
C         54.99111        66.92392         0.58070
C         53.76965        67.66839         0.58151
C         54.98218        69.78736         0.94483
C         53.78608        69.11059         0.74645
C         55.02757        71.26420         1.24757
C         53.77042        71.98677         0.85694
C         55.06406        74.07394         0.60316
C         53.81009        73.41513         0.71849
C         56.15468        50.59221         0.01855
C         57.38050        52.71730        -0.30430
C         56.17132        52.00043        -0.12732
C         57.42709        54.13322        -0.38868
C         56.18390        54.88563        -0.37061
C         57.43986        57.00396        -0.33552
C         56.18055        56.27052        -0.31230
C         57.44286        58.37679        -0.30587
C         56.21619        59.16389         0.08192
C         57.46597        61.30882        -0.29781
C         56.23218        60.64005        -0.27442
C         57.54673        62.79536        -0.47763
C         56.24822        63.50322        -0.20961
C         57.43061        65.40737         0.91240
C         56.21471        64.77541         0.27679
C         57.46133        66.90276         0.70595
C         56.24455        67.59970         0.74176
C         57.46473        69.79069         0.63881
C         56.26923        69.04456         1.16745
C         57.47171        71.18181         0.56769
C         56.28219        71.93909         0.74655
C         57.48125        74.01726         0.14177
C         56.27945        73.34823         0.50214
C         58.64245        54.82680        -0.48778
C         59.92171        56.91603        -0.41095
C         58.70465        56.25479        -0.44887
C         59.97953        58.37124        -0.02643
C         58.72805        59.08821        -0.48149
C         60.00153        61.27476        -0.17341
C         58.73157        60.58562        -0.45429
C         59.97419        62.61758         0.18776
C         58.75994        63.37911         0.22016
C         59.94749        65.46073         0.81190
C         58.74587        64.72316         0.61591
C         59.93708        66.88670         0.72654
C         58.69978        67.57845         0.64450
C         59.95027        69.77780         0.60276
C         58.69002        69.01986         0.20964
C         59.86817        71.16604         0.01288
C         58.70772        71.86691         0.16545
C         59.93265        73.98837        -0.10357
C         58.71353        73.32808         0.00298
C         61.22497        59.13603        -0.38247
C         62.47436        61.26115        -0.24137
C         61.24829        60.52667        -0.27372
C         62.52276        62.60080         0.21787
C         61.24100        63.22043         0.64864
C         62.48722        65.43847         0.76722
C         61.22896        64.74731         0.91122
C         62.46506        66.88628         0.68191
C         61.18793        67.61669         0.59300
C         62.38632        69.65387        -0.15585
C         61.20994        68.98364         0.32818
C         62.25179        70.95777        -0.72884
C         61.02080        71.84000        -0.69235
C         62.45769        74.05847        -0.37862
C         61.23835        73.21918        -0.00810
C         63.71223        63.28922         0.40423
C         64.87505        65.39556         0.06523
C         63.80784        64.71182         0.89241
C         64.85116        66.73560        -0.26772
C         63.74630        67.59549         0.21564
C         64.77286        69.55914        -0.90391
C         63.62644        68.95851        -0.32594
C         64.64147        70.93217        -1.33176
C         63.32510        71.46493        -1.43008
C         64.79511        74.16936        -1.42525
C         63.43623        73.70524        -1.26442
C         65.88566        67.36172        -1.01954
C         67.05625        69.27844        -1.97986
C         65.94727        68.75190        -1.23248
C         67.40542        70.63188        -1.94481
C         65.72328        71.83501        -1.38176
C         67.11798        73.67464        -2.17305
C         65.82792        73.24875        -1.71315
C         68.16431        71.45074        -2.80621
C         68.10586        72.85959        -2.73893
O         41.30843        72.99773        -1.22517
O         46.36954        64.20929        -2.02405
O         45.10710        41.92000        -1.00474
O         41.61003        52.56152         2.77818
O         43.86171        51.37406         3.08062
O         30.68972        63.19748         2.50379
O         58.81926        59.79857        -1.74600
O         61.24154        63.71571         1.99040
O         34.33009        52.21564         1.00935
O         63.45393        67.49260         1.64190
O         50.96460        56.97857         1.87263
O         33.06976        61.87077         2.41379
O         63.16423        72.63615        -2.15605
O         41.77615        59.18991         2.20693
O         46.91393        39.13448         1.85594
O         46.11194        42.56989         2.40783
O         47.15978        71.59978        -1.26470
O         66.88742        71.33913        -0.81804
O         40.99616        44.93494        -2.52385
O         54.10707        54.45529        -1.65206
O         59.91733        69.96052         2.04514
H         60.58378        70.64407         2.27371
O         37.83474        50.64107        -1.74327
H         38.61000        50.25264        -2.20018
O         44.33373        67.54690         1.74213
H         43.53355        67.74610         2.28668
O         44.29018        59.74253         2.52012
H         43.42444        59.86459         2.97619
O         48.23954        64.98824         1.53630
H         48.89217        64.51774         2.09650
O         34.06107        54.77153        -1.76545
H         34.90904        55.15415        -2.09305
O         25.68594        69.55119        -2.85448
H         26.48681        70.06027        -3.13058
O         32.55810        70.15297         2.56568
H         33.02342        69.38042         2.97893
O         60.59137        72.09736        -2.04753
H         60.25815        71.25753        -2.42617
O         36.42115        50.22775         1.60393
H         35.60385        50.61833         1.98276
O         34.24439        67.94260         2.86712
H         33.90980        67.07867         3.22081
O         33.39671        74.02419         2.04202
H         33.87919        73.50018         2.71499
O         57.78616        62.99496        -1.93800
H         58.39544        62.28161        -2.23276
O         35.20821        71.47200        -1.18485
H         36.04562        71.06520        -1.49777
O         41.53036        67.75006         2.16023
H         41.27817        66.83393         2.40959
O         44.83722        48.41689         3.30837
H         45.18810        47.53339         3.59897
O         48.43838        56.74343         2.41877
H         49.28509        56.67235         2.91572
O         27.25757        71.96270        -2.59945
H         26.67018        72.58067        -3.08306
O         47.38827        70.11658         2.07229
H         47.22414        69.22822         2.45500
O         57.23080        65.21951         2.35484
H         57.85136        65.81653         2.82464
O         42.13805        45.41755         2.16056
H         42.18002        46.25915         2.66430
O         38.87862        63.57377        -1.95621
H         39.77302        63.84943        -2.25650
O         28.57117        69.85569        -2.24539
H         28.77722        68.94009        -2.52854
O         55.02293        62.95589        -2.21599
H         55.98055        62.96907        -2.47570
O         51.30913        39.37728         0.03285
H         51.13816        39.62269        -0.89914
O         59.90407        58.39098         1.45086
H         60.72362        57.97896         1.79724
O         44.41448        39.63681         1.76484
H         45.15362        39.55652         2.41727
O         53.80249        60.52899        -2.24526
H         54.14172        61.41715        -2.54920
O         48.19523        65.92606        -1.99572
H         47.87555        65.16099        -2.53156
O         35.18873        54.84251         1.76831
H         34.55201        54.26318         2.23899
O         42.33177        45.48678        -2.44239
H         42.89119        44.74962        -2.79031
O         37.36653        65.86018        -1.64477
H         37.73595        65.02441        -2.03560
O         43.41218        40.66785        -2.42313
H         43.66300        39.87112        -2.93666
O         43.91593        55.23363         3.18617
H         43.08381        55.67533         3.46123
O         47.85050        53.01058         2.96208
H         47.08540        53.50091         3.33585
O         56.48372        69.00585         2.63161
H         56.24503        69.90679         2.97052
O         50.38072        50.09319         2.79223
H         49.64251        49.66407         3.27631
O         47.76610        56.56734        -1.14697
H         47.06468        56.96231        -1.70588
O         37.73773        75.68180         0.49633
H         37.70818        75.61434        -0.47994
O         34.94773        61.56992        -1.43023
H         35.69238        62.10305        -1.78683
O         42.20511        41.06710         1.04437
H         42.87981        40.51249         1.51278
O         44.74856        67.61051        -1.90417
H         45.49455        67.32841        -2.47420
O         64.20089        64.73995         2.30629
H         64.15540        65.68320         2.58522
O         39.20994        59.12867        -1.68352
H         38.52531        59.68017        -2.11983
O         61.42789        72.88746         1.40996
H         61.42374        73.72497         1.91966
O         24.36467        69.20329         0.56432
H         23.58439        68.74554         0.94087
O         32.82943        65.63187         2.95863
H         32.60815        64.71077         3.22385
O         55.10757        71.37303         2.74619
H         54.22482        71.12342         3.09672
O         28.58595        60.62043         2.48385
H         28.90075        61.47414         2.85386
O         58.67644        69.00428        -1.26008
H         57.88466        68.50074        -1.54588
O         46.24780        46.12494         3.27610
H         47.16529        46.27363         3.62281
O         36.57968        54.81266        -1.66118
H         37.44029        55.16206        -1.97621
O         49.03101        46.30265         3.17548
H         49.33772        45.39848         3.40781
O         44.68926        62.33488        -2.05751
H         45.00597        63.07288        -2.63010
O         33.36135        74.01731        -1.60808
H         33.72367        73.10478        -1.67085
O         56.25429        59.18521         1.55849
H         56.31420        58.25772         1.87244
O         49.59611        52.72351        -1.07994
H         50.31593        53.18782        -1.55939
O         51.11000        60.43996        -2.17338
H         52.03589        60.31161        -2.51044
O         41.08665        41.98049        -3.12145
H         42.00230        41.60203        -3.16803
O         27.36970        71.09520         0.98508
H         27.27185        71.99086         1.37014
H         22.97517        75.04622        -1.23829
H         25.38004        75.12932        -0.73798
H         27.87027        75.20215        -0.46991
H         30.36875        75.21834        -0.63058
H         32.75972        75.32332        -0.12084
H         35.33240        75.40931         0.73914
H         37.81007        74.47886         2.15616
H         40.19752        75.39460         0.77272
H         42.78514        75.38730         0.52074
H         45.19620        75.36459         0.30397
H         47.69919        75.32876         0.26111
H         50.17183        75.28258         0.38544
H         52.63169        75.22704         0.49208
H         55.07910        75.16303         0.44885
H         57.46018        75.11057         0.01802
H         59.95534        75.08920        -0.11230
H         62.66770        74.88824         0.31672
H         65.04859        75.23456        -1.31421
H         67.24810        74.76025        -2.30392
H         22.15235        69.15052        -1.49124
H         20.93136        71.28265        -1.83008
H         20.90555        73.75746        -1.72067
H         24.77380        64.88145        -1.11879
H         23.47729        66.96005        -1.29536
H         27.03979        60.77049        -0.00064
H         25.97525        62.82653        -0.70404
H         29.38656        56.47781         0.31590
H         28.15306        58.55206         0.63360
H         31.68317        52.43903        -1.01052
H         30.54855        54.40986         0.06298
H         34.66174        48.24582        -1.52285
H         33.41330        50.22484        -1.55952
H         37.13619        43.99777        -1.54402
H         35.89368        46.10228        -1.50272
H         39.59370        39.76699        -1.90183
H         38.38832        41.92310        -1.77345
H         42.06874        35.51018        -2.25291
H         40.76870        37.55846        -1.86153
H         45.51926        32.20023        -2.54905
H         43.36430        33.44282        -2.62832
H         47.58528        33.29451        -1.69735
H         48.73689        35.32419        -0.83389
H         49.89205        37.35419        -0.09815
H         50.46913        39.56903         1.89475
H         52.25264        41.54248         0.52326
H         53.44522        43.67862         0.40019
H         54.65784        45.81616         0.31672
H         55.86678        47.91833         0.19560
H         57.10286        50.03496        -0.00999
H         58.32650        52.15624        -0.33559
H         59.58433        54.25860        -0.51850
H         60.85595        56.33292        -0.43502
H         62.17862        58.58945        -0.45261
H         63.41885        60.72986        -0.43103
H         64.65375        62.78915         0.12964
H         65.72245        64.78353        -0.28060
H         66.72147        66.73784        -1.37045
H         67.64268        68.58012        -2.59526
H         68.82420        70.98533        -3.55168
H         68.89108        73.39581        -3.29701
