         324
 CSIRO Nanostructure Databank - Neutral Graphene Oxide Data Set
C          1.27821         1.99234         0.52606
C          1.26260         3.42107         0.41271
C          2.45683         1.30400         0.62257
C          2.41180         4.17090         0.49466
C          1.19918         6.34440         0.38621
C          1.17829         7.72132         0.28504
C          2.41597         5.62093         0.37601
C          2.36763         8.47275         0.12291
C          1.15645        10.65301         0.34920
C          1.13884        12.04406         0.25436
C          2.31780         9.90497         0.07849
C          2.31904        12.80567         0.08896
C          1.14087        14.95731        -0.41874
C          1.16723        16.34927        -0.59011
C          2.28252        14.23977        -0.03988
C          2.35387        17.09436        -0.46057
C          2.38763        18.51578        -0.64829
C          3.71443         2.00128         0.63393
C          3.71100         3.49614         0.87159
C          4.90295         1.32280         0.53882
C          4.93498         4.19254         0.33127
C          3.63691         6.33280         0.23076
C          3.62320         7.75901         0.05428
C          4.89492         5.61975         0.14486
C          4.84645         8.45137        -0.13446
C          3.52216        10.65804        -0.29045
C          3.57400        12.10806        -0.02450
C          4.85243         9.89986        -0.40059
C          4.80673        12.76314         0.00221
C          3.51662        14.98917         0.22815
C          3.57679        16.42934        -0.10384
C          4.83138        14.20246         0.29602
C          4.77883        17.11969        -0.06607
C          3.55743        19.21596        -0.53220
C          4.81276        18.54889        -0.28746
C          6.16044         2.01436         0.41383
C          6.13889         3.46120         0.24204
C          7.35054         1.31121         0.32065
C          7.36073         4.12167        -0.04216
C          6.08143         6.32691        -0.12774
C          6.09191         7.75997        -0.20279
C          7.27413         5.52181        -0.59586
C          7.30478         8.51674        -0.33672
C          6.10188        10.65818        -0.22907
C          6.07077        12.07405        -0.11914
C          7.32656         9.93744        -0.22132
C          7.29727        12.80808        -0.01161
C          6.08375        14.93709         0.14648
C          6.03782        16.42820         0.40532
C          7.28710        14.25103         0.08090
C          7.28464        17.08778        -0.13573
C          6.00617        19.26756        -0.26293
C          7.30285        18.58174        -0.31680
C          8.60438         1.97617         0.13396
C          8.58473         3.41602        -0.03496
C          9.82025         1.28953         0.10649
C          9.82491         4.10526        -0.08943
C          8.58888         6.29890        -0.51753
C          8.58568         7.79690        -0.50311
C          9.78033         5.57762         0.04050
C          9.86974         8.54560        -0.23573
C          8.56771        10.68297        -0.10103
C          8.54150        12.10713         0.01365
C          9.81289        10.00687         0.00035
C          9.77780        12.82938         0.13972
C          8.54837        14.98799         0.21074
C          8.53893        16.37832         0.19047
C          9.79125        14.26330         0.25839
C          9.73002        17.17669         0.45109
C          8.58142        19.28693        -0.18714
C          9.76623        18.62258         0.11230
C         11.07524         1.96654         0.03182
C         11.05759         3.42373         0.01214
C         12.29218         1.26605         0.00354
C         12.27659         4.13967         0.12997
C         11.04324         6.31409         0.35198
C         11.10910         7.79305         0.12047
C         12.31912         5.57138         0.21839
C         12.33739         8.50859         0.60168
C         11.01306        10.70458         0.19093
C         11.00522        12.12433         0.19936
C         12.26630        10.03507         0.73010
C         12.26376        12.84528         0.13376
C         11.02450        14.95954         0.31527
C         11.05922        16.41208         0.54093
C         12.25849        14.28941         0.14038
C         12.29722        17.16162         0.31797
C         11.02505        19.28207         0.14497
C         12.26243        18.59295         0.24457
C         13.55506         1.93035         0.03514
C         13.52470         3.38724         0.26489
C         14.78458         1.29574        -0.14330
C         14.83257         4.15266         0.02169
C         13.48152         6.29192        -0.02907
C         13.60498         7.74676         0.24324
C         14.68185         5.55231        -0.44059
C         14.75971         8.49167        -0.27238
C         13.57137        10.72525         0.31290
C         13.46791        12.15721         0.01993
C         14.81783         9.94421        -0.12166
C         14.65345        12.88570        -0.46737
C         13.49057        15.02299         0.10310
C         13.51567        16.46455         0.20883
C         14.69865        14.33837        -0.18888
C         14.76503        17.17423         0.27311
C         13.49986        19.28247         0.14446
C         14.75589        18.64079         0.22625
C         16.03367         2.00400        -0.30197
C         16.04009         3.42949        -0.36042
C         17.26145         1.32946        -0.47730
C         17.23149         4.17074        -0.61672
C         15.92486         6.29089        -0.84917
C         15.86676         7.78806        -0.90326
C         17.21267         5.59735        -0.70747
C         17.22141         8.53933        -0.98678
C         16.00509        10.67635        -0.64650
C         15.90555        12.15030        -0.83943
C         17.18691        10.01312        -0.81691
C         17.17780        12.94246        -1.00083
C         15.91278        15.03135        -0.19458
C         15.94714        16.39313         0.21799
C         17.16720        14.41267        -0.68050
C         17.22679        16.90521         0.64413
C         15.92136        19.45724         0.05781
C         17.22326        19.07048         0.49481
C         18.48642         2.03839        -0.60281
C         18.48037         3.47422        -0.64966
C         19.73561         1.37204        -0.63819
C         19.70417         4.20413        -0.64370
C         18.41903         6.33878        -0.65002
C         18.44244         7.77297        -0.70760
C         19.65695         5.63175        -0.54967
C         19.64025         8.46082        -0.38831
C         18.48258        10.71325        -0.97610
C         18.49353        12.21816        -0.98917
C         19.70662         9.93244        -0.60968
C         19.71523        12.94456        -0.57681
C         18.49849        15.11662        -0.44526
C         18.44623        16.38324         0.32114
C         19.73788        14.29696        -0.35353
C         19.69320        17.12379         0.66552
C         18.49760        19.38479         0.07796
C         19.68289        18.69648         0.74234
C         20.95755         2.07787        -0.64611
C         20.96179         3.52003        -0.63961
C         22.19376         1.38056        -0.59264
C         22.19728         4.24668        -0.62423
C         20.86386         6.35530        -0.37421
C         20.84142         7.76932        -0.17802
C         22.11134         5.67489        -0.53453
C         22.08329         8.48625         0.33100
C         20.90613        10.67983        -0.13002
C         20.92475        12.16323        -0.19805
C         22.18143         9.94671        -0.05749
C         22.25450        12.83504        -0.45036
C         20.99884        14.96198         0.00127
C         20.97945        16.39281         0.43186
C         22.19183        14.30239        -0.09627
C         22.23956        17.15077         0.27635
C         20.99977        19.28836         0.29486
C         22.21422        18.59114         0.25046
C         23.41602         2.05186        -0.43359
C         23.44514         3.50926        -0.46601
C         24.62447         1.30429        -0.28571
C         24.68117         4.12012        -0.15620
C         23.23796         6.54894        -0.67365
C         23.35735         7.80191        -0.09402
C         24.99547         5.47224        -0.44059
C         24.61980         8.46625         0.14728
C         23.39979        10.62561         0.06007
C         23.44926        12.06834         0.10041
C         24.61011         9.86292         0.32706
C         24.65039        12.75532         0.38189
C         23.52567        14.99147        -0.06167
C         23.45165        16.46418         0.24233
C         24.52840        14.21295         0.83821
C         24.67077        17.17319         0.31457
C         23.45963        19.27621         0.08485
C         24.67819        18.58647         0.14453
C         25.83241         1.89985         0.12973
C         25.76559         3.33191         0.47393
C         27.05923         1.24029         0.29548
C         27.03277         4.05387         0.89343
C         25.93860         6.26048         0.22943
C         25.87658         7.71801         0.25196
C         27.04549         5.55490         0.86418
C         27.07844         8.39884         0.42781
C         25.81439        10.60106         0.73105
C         25.86242        12.06856         0.58887
C         27.13549         9.82129         0.75065
C         27.13846        12.77234         0.59199
C         25.89384        14.93925         0.86314
C         25.92652        16.46566         0.62308
C         27.13739        14.20357         0.62489
C         27.19667        17.13501         0.29789
C         25.95749        19.25343         0.06473
C         27.14698        18.56432         0.09920
C         28.27993         1.93897         0.56789
C         28.30411         3.32171         0.80033
C         29.53630         1.21924         0.40537
C         29.58715         4.06229         0.86236
C         28.42940         6.27070         0.66140
C         28.33472         7.66207         0.14010
C         29.62208         5.49603         0.50127
C         29.61117         8.36854        -0.12990
C         28.42475        10.58015         0.57954
C         28.34889        12.05151         0.43440
C         29.67040         9.83767         0.16334
C         29.55543        12.75457        -0.02893
C         28.38889        14.97506         0.66096
C         28.40181        16.42809         0.36430
C         29.70645        14.19658         0.31085
C         29.64811        17.09107         0.03419
C         28.43854        19.34072         0.15211
C         29.66100        18.50523        -0.13114
C         30.74223         1.83616         0.40736
C         30.87158         3.27549         0.70018
C         32.08427         4.01756         0.26024
C         30.76745         6.07419        -0.31482
C         30.88595         7.59824        -0.14639
C         32.05299         5.30403        -0.11468
C         32.03000         8.31865        -0.31221
C         30.90536        10.52503        -0.29213
C         30.85399        12.00159        -0.43493
C         32.02793         9.76513        -0.44592
C         32.07915        12.79010        -0.43059
C         30.86892        14.92314        -0.20081
C         30.85397        16.35920        -0.23194
C         32.04073        14.16383        -0.47400
C         32.01981        17.08065        -0.61088
C         30.82315        19.17135        -0.50926
C         32.00878        18.45652        -0.74215
O         19.37119        10.19391        -2.01951
O         16.42623         8.22309        -2.17881
O         14.36613         3.87823         1.36795
O         17.17662        18.03391         1.46541
O         30.42942         3.67928         2.03720
O         27.72972         6.17256         1.95814
O         20.71149        11.50799         1.09516
O         24.28743         6.08635        -1.48101
O         10.88161         8.20480        -1.26372
O         25.98545        15.87591         1.96906
O         26.43050        10.13633         1.98628
O          4.11171        14.62456         1.53196
O         17.82476        15.19424        -1.73936
O         14.93298        12.51145        -1.88611
O         10.34325        16.86025         1.74289
O         24.00600        14.07502         2.10761
O         15.03585         5.68688        -1.86105
O          7.25618        17.58406        -1.49515
O         14.61845        10.41922         1.30451
O          8.76920         7.03205        -1.76520
O         20.41039        16.56004         1.81169
O         29.35000        14.53556         1.67430
O         28.75078         7.91902        -1.26444
O          4.08310        10.28032        -1.59634
O         10.12781         5.96457         1.43404
O         13.11814         7.95231         1.67167
O         29.42159        10.13146         1.58764
O         29.86715        12.45428        -1.43530
O         17.88187        12.68146        -2.24337
O         26.05369         3.58183         1.89182
O         24.09136        14.90038        -1.42058
H         23.61012        15.53755        -1.99153
O          6.99293         5.28774        -2.01615
H          7.39716         6.04681        -2.50433
O          6.08596        16.58732         1.85650
H          5.36636        16.01605         2.22015
O         19.63666        19.02978         2.15551
H         20.09983        18.29816         2.62938
O         22.45696        12.74424        -1.89729
H         23.23029        13.32252        -2.10807
O         12.14308        10.29238         2.15543
H         12.95064         9.91205         2.57327
O         21.95642         8.45935         1.78886
H         22.69710         8.98024         2.16751
O         28.38732        20.48571        -0.70742
H         28.34675        20.17273        -1.63400
O         30.41809         5.86146        -1.72422
H         29.73759         6.54386        -1.95726
O          3.80571         3.65636         2.34038
H          3.03609         3.18805         2.72890
H          0.32358         1.45074         0.47709
H          0.29385         3.90079         0.21508
H          2.46354         0.20402         0.62265
H          0.24583         5.81234         0.50268
H          0.20799         8.23404         0.31458
H          0.21796        10.14095         0.60117
H          0.18230        12.56643         0.39367
H          0.19842        14.42132        -0.59967
H          0.24001        16.87108        -0.86694
H          1.44925        19.03881        -0.88342
H          4.90231         0.22290         0.48433
H          3.56478        20.30642        -0.67522
H          7.33975         0.21468         0.41310
H          5.98170        20.36451        -0.34909
H          9.81842         0.19263         0.19673
H          8.59502        20.37893        -0.32543
H         12.27271         0.16694        -0.05073
H         11.04713        20.37070        -0.01505
H         14.80315         0.20032        -0.25011
H         13.47811        20.37768         0.03883
H         17.28386         0.22976        -0.44721
H         15.77470        20.46402        -0.36368
H         19.75742         0.27228        -0.60948
H         18.67507        20.14512        -0.69575
H         22.18275         0.28037        -0.59345
H         21.04049        20.38821         0.24530
H         24.58799         0.21587        -0.44471
H         23.45767        20.37041        -0.02671
H         27.11573         0.15909         0.09837
H         25.98040        20.34930        -0.02592
H         29.47700         0.14249         0.18700
H         28.53821        19.74485         1.20001
H         31.65397         1.27129         0.16124
H         33.04509         3.47958         0.29502
H         32.98894         5.79166        -0.42556
H         33.00158         7.81333        -0.40704
H         32.98291        10.23879        -0.71465
H         33.04907        12.27488        -0.42083
H         32.99360        14.69290        -0.61057
H         32.95675        16.54402        -0.80649
H         30.79930        20.26377        -0.62544
H         32.92392        18.98984        -1.03352
