         576
 CSIRO Nanostructure Databank - Neutral Graphene Oxide Data Set
C          5.80652        18.98542         0.23376
C          5.85306        20.48826         0.33425
C          4.59006        21.24693         0.00532
C          5.87933        23.30296        -0.52091
C          4.63270        22.56344        -0.29096
C          5.88555        24.64808        -0.76673
C          8.19178        14.62303         0.68716
C          8.16192        16.04584         0.63184
C          6.99419        16.80345         0.50381
C          8.24784        18.93212         0.26018
C          6.99444        18.24154         0.35135
C          8.31825        20.27027        -0.33425
C          7.03127        21.07271        -0.42111
C          8.35073        23.15467        -0.74314
C          7.12176        22.53808        -0.56039
C          8.39693        24.60483        -0.91746
C          7.12214        25.32410        -1.30548
C          8.38434        27.52017        -1.05315
C          7.19825        26.82645        -1.14472
C          8.44949        28.95145        -1.15143
C         10.79252        10.35521         1.27251
C         10.60734        11.77140         1.29940
C          9.40197        12.47696         1.02046
C         10.66198        14.62490         0.76533
C          9.39255        13.89499         0.86754
C         10.69565        16.00756         0.62967
C          9.44752        16.75345         0.82046
C         10.77807        18.94549         0.35466
C          9.48369        18.28658         0.64404
C         10.78848        20.33495         0.02704
C          9.58151        21.02506        -0.29333
C         10.84223        23.09518        -0.58552
C          9.58796        22.40982        -0.54477
C         10.85673        24.54525        -0.91745
C          9.57898        25.28582        -0.90462
C         10.93302        27.44920        -1.10288
C          9.64216        26.77882        -0.65426
C         10.94608        28.94823        -1.19330
C          9.65171        29.67996        -1.14218
C         10.91176        31.82003        -1.04281
C          9.69788        31.08231        -1.21617
C         10.89333        33.20655        -0.99593
C         13.42798         6.01809         0.62802
C         13.22244         7.47964         0.25538
C         12.05535         8.22132         0.91789
C         13.25754        10.32619         0.67802
C         12.02251         9.60888         1.03020
C         13.57215        11.55023         1.18268
C         11.74299        12.63754         1.52613
C         13.23320        14.44543         0.52732
C         11.88679        13.91488         1.03322
C         13.26662        15.97098         0.37275
C         11.96534        16.73905         0.38667
C         13.22111        18.92232         0.34290
C         11.97859        18.23112         0.42678
C         13.24082        20.31881         0.25347
C         12.03328        21.02932        -0.01467
C         13.34101        23.09448        -0.71616
C         12.03742        22.41289        -0.37291
C         13.33664        24.57614        -0.25390
C         12.14802        25.29939        -0.83551
C         13.40199        27.45756        -0.61940
C         12.19843        26.77160        -0.76528
C         13.34565        28.91123        -0.53797
C         12.19098        29.63629        -0.80228
C         13.30389        31.79942        -0.45006
C         12.16035        31.09323        -0.73189
C         13.38296        33.26904        -0.82222
C         12.06266        33.97528        -0.43190
C         13.38154        36.11399        -1.12676
C         12.11284        35.46212        -0.66099
C         13.45098        37.61435        -0.95027
C         15.66443         5.63624        -0.51301
C         14.43866         5.21816         0.20749
C         15.79655         7.86992         0.69535
C         14.50457         8.28647         0.32199
C         15.57488        10.47839        -0.41607
C         14.33612         9.68790        -0.11764
C         15.70593        11.87180         0.05446
C         14.64904        12.39024         0.75878
C         15.80350        14.60108         0.96269
C         14.53408        13.83739         1.08158
C         15.74042        16.06614         0.77637
C         14.55167        16.70439         0.56873
C         15.78121        18.92843         0.36610
C         14.50404        18.16540         0.28654
C         15.76939        20.37790         0.50470
C         14.47383        21.12552         0.61086
C         15.72300        23.08481        -0.36594
C         14.55706        22.42581        -0.14059
C         15.65089        24.42329        -0.93623
C         14.62007        25.29279        -0.64594
C         15.91912        27.45633        -0.38290
C         14.69368        26.74623        -0.58028
C         15.86272        28.88496         0.06188
C         14.52748        29.60232         0.02799
C         15.78406        31.85179         0.21384
C         14.49846        31.10215         0.06608
C         15.86869        33.28729        -0.28108
C         14.54794        34.05268        -0.26879
C         15.71446        36.21082         0.04137
C         14.54678        35.39878        -0.39062
C         15.86033        37.61651        -0.41453
C         14.61253        38.28271        -0.75711
C         18.15577         6.04009        -0.14808
C         16.91968         5.26935        -0.03757
C         18.08735         7.49916        -0.58044
C         16.91089         8.34492        -0.07208
C         18.10245        10.49650        -0.74057
C         16.82050         9.69299        -0.63808
C         18.13748        11.93172        -0.41365
C         16.96187        12.60435        -0.01507
C         18.27865        14.62272         0.46295
C         17.04203        13.92386         0.49390
C         18.36804        16.00586         1.07389
C         17.03302        16.77695         1.01199
C         18.31915        18.96421         0.60168
C         17.04122        18.24560         0.79735
C         18.30306        20.35893         0.49412
C         17.02641        21.05694         0.05778
C         18.36873        23.20021         0.00549
C         16.97966        22.56178         0.33600
C         18.35910        24.70288         0.18277
C         17.49854        25.46964        -0.53839
C         18.39790        27.57924         0.08937
C         17.21874        26.86963        -0.27297
C         18.37803        29.03445         0.10204
C         17.11685        29.69426         0.13002
C         18.26612        31.86926         0.35198
C         17.08215        31.11464         0.21875
C         18.30542        33.37375         0.21389
C         16.95908        33.98349         0.61929
C         18.22360        36.26097         0.64545
C         16.92465        35.50345         0.55023
C         18.31657        37.60888         0.04273
C         17.08700        38.23979        -0.40470
C         20.66218         6.17959         0.12942
C         19.38028         5.47886         0.13166
C         20.68307         7.59486        -0.18543
C         19.36724         8.27539        -0.26301
C         20.58551        10.47327        -0.84351
C         19.35311         9.75470        -0.40636
C         20.58577        11.92694        -0.72713
C         19.40202        12.60039        -0.33280
C         20.81615        14.63618         0.13665
C         19.44723        13.97771         0.05540
C         20.73674        16.15326         0.18765
C         19.56426        16.80344         0.54500
C         20.75972        18.97829         0.45075
C         19.53952        18.24279         0.57196
C         20.74534        20.41025         0.59264
C         19.51843        21.07708         0.60906
C         20.74445        23.28684         0.92227
C         19.42958        22.54830         0.91478
C         20.70550        24.64620         1.06850
C         19.37551        25.40283         1.06425
C         20.84131        27.22421         0.22610
C         19.53729        26.79771         0.48799
C         20.87207        29.27832         0.08187
C         19.55800        29.81095         0.26573
C         20.71615        31.90564         0.84127
C         19.51362        31.21364         0.51770
C         20.72292        33.33410         0.93132
C         19.51612        34.03124         0.83433
C         20.79248        36.19024         0.64172
C         19.51724        35.49781         0.86912
C         20.80471        37.56186         0.27379
C         19.55761        38.21845        -0.05284
C         23.09571         6.27424         0.58744
C         21.86140         5.52042         0.33385
C         23.07596         7.78026         0.33195
C         21.85217         8.33027        -0.26056
C         23.15403        10.47439        -0.87497
C         21.89514         9.69679        -0.83614
C         23.07799        11.88745        -1.35595
C         21.77075        12.66599        -1.17743
C         23.05272        14.89604        -1.11145
C         21.67873        14.19630        -1.06768
C         23.13895        16.25999        -0.53562
C         21.94963        16.90062        -0.06143
C         23.20932        19.10831        -0.04731
C         21.96559        18.29339         0.20183
C         23.24101        20.42317         0.71587
C         21.98550        21.14647         0.79576
C         23.16729        23.16501         1.62935
C         21.96711        22.51710         1.05837
C         23.20626        24.67590         1.72681
C         21.94678        25.40262         1.38979
C         23.22301        27.53409         0.84737
C         22.02678        26.77121         0.84454
C         23.22968        28.98068         0.74907
C         22.01868        29.76078         0.67587
C         23.23092        31.87606         1.08453
C         21.93765        31.13101         1.29568
C         23.21568        33.29833         1.08306
C         21.97912        34.05664         1.06765
C         23.22720        36.23736         0.93853
C         21.98193        35.46063         0.88044
C         23.27909        37.61269         0.40965
C         22.05824        38.23233         0.11100
C         25.60122         6.27807         0.39939
C         24.40909         5.61038         0.67001
C         25.55282         7.66395        -0.16080
C         24.39220         8.56582         0.25458
C         25.61969        10.51805        -0.73906
C         24.34893         9.86272        -0.54466
C         25.64883        11.93392        -1.18643
C         24.37119        12.65439        -1.48316
C         25.67902        14.92182        -1.40101
C         24.33211        14.16970        -1.45622
C         25.63640        16.21705        -0.59338
C         24.41284        16.91658        -0.39559
C         25.68145        18.89521         0.33092
C         24.45938        18.27428         0.05742
C         25.69469        20.24250         0.97596
C         24.42944        21.00706         1.08262
C         25.74587        23.20203         1.90094
C         24.45149        22.36184         1.69747
C         25.62984        24.53311         1.04313
C         24.54074        25.44329         1.66975
C         25.66292        27.54022         0.92461
C         24.47045        26.84266         1.04222
C         25.68929        28.97754         0.89605
C         24.44870        29.68499         0.92294
C         25.68481        31.81686         0.91643
C         24.44100        31.13600         0.98264
C         25.65676        33.24071         0.83187
C         24.45365        33.96895         0.93657
C         25.71367        36.09653         0.42163
C         24.53048        35.43342         0.96140
C         25.76025        37.51928         0.29324
C         24.56441        38.24243         0.28126
C         28.10193         6.35234         0.36518
C         26.86202         5.66578         0.57634
C         28.10294         7.65896        -0.20335
C         26.84426         8.36223        -0.48890
C         28.07823        10.57175        -0.64839
C         26.83185         9.84593        -0.61180
C         28.10408        11.95828        -0.72816
C         26.88960        12.70585        -0.93822
C         28.12943        14.81706        -0.97109
C         26.88635        14.08468        -1.04924
C         28.12258        16.13567        -0.57785
C         26.87127        16.84807        -0.31287
C         28.16168        18.97090         0.12842
C         26.89503        18.18767         0.15901
C         28.20905        20.40442         0.53576
C         26.98959        20.95894         1.20909
C         28.32198        23.13437         1.45709
C         27.03710        22.40200         1.62748
C         28.25336        24.60090         1.15721
C         26.96148        25.29039         0.84011
C         28.18169        27.57339         1.00376
C         26.93970        26.82227         0.55980
C         28.18198        28.94540         1.05526
C         26.93238        29.67328         0.93542
C         28.17193        31.81213         0.92229
C         26.94547        31.10514         0.92054
C         28.14221        33.27668         0.85044
C         26.86343        33.94470         0.56091
C         28.10425        35.70894        -0.49084
C         26.84198        35.29154         0.18950
C         27.93787        38.10035        -0.84979
C         27.16386        38.05329         0.27310
C         30.57521         6.56421         0.78308
C         29.33576         5.75034         0.70842
C         30.66458         7.52433        -0.44367
C         29.36081         8.30451        -0.59398
C         30.63248        10.54689        -0.63177
C         29.35252         9.81056        -0.74156
C         30.64486        11.89195        -0.80028
C         29.40129        12.72637        -0.58112
C         30.66754        14.81071        -1.24749
C         29.36672        14.02829        -1.38830
C         30.67167        16.19053        -0.71853
C         29.40261        16.78939        -0.22178
C         30.73180        18.99442        -0.01535
C         29.45584        18.23574         0.14266
C         30.71871        20.42540         0.26511
C         29.52829        21.08786         0.66221
C         30.76429        23.19055         0.91391
C         29.55031        22.46394         0.93773
C         30.79706        24.65056         1.07022
C         29.51884        25.37264         1.35433
C         30.69370        27.51163         0.60905
C         29.46443        26.85322         1.19862
C         30.71030        29.00431         0.84181
C         29.47353        29.69463         1.38090
C         30.64520        31.87180         0.85999
C         29.45672        31.17064         0.98612
C         30.75424        33.38756         1.03510
C         29.40128        34.08070         0.88090
C         30.59518        36.25042         0.01373
C         29.35113        35.49809         0.33702
C         30.51119        37.55485        -0.73521
C         29.40549        38.33743        -0.96392
C         33.02513         6.28805         0.45162
C         31.85444         5.75777         0.85529
C         33.10590         7.69943         0.04748
C         31.90463         8.35912        -0.29336
C         33.17216        10.52417        -0.42034
C         31.86243         9.84274        -0.09584
C         33.20640        11.88764        -0.72612
C         31.93667        12.57954        -1.02941
C         33.22776        14.77814        -0.98610
C         31.96496        14.05804        -1.26114
C         33.19902        16.15128        -0.71783
C         31.94913        16.79667        -0.15034
C         33.14573        19.02630        -0.55739
C         31.89389        18.31006        -0.28471
C         33.17500        20.51868        -0.17341
C         31.94273        21.14275         0.33632
C         33.26072        23.21578         1.12664
C         31.97623        22.49318         0.71558
C         33.22451        24.63715         0.46760
C         31.95646        25.34967         0.90475
C         33.17665        27.51191         0.46651
C         31.99743        26.85369         1.14202
C         33.03369        28.93793         0.08897
C         31.86152        29.68032         0.63930
C         33.09694        31.86526         0.19969
C         31.97641        31.15156         0.95785
C         33.07310        33.29490         0.05811
C         31.88293        34.06245         0.27350
C         33.02033        36.06001        -0.57552
C         31.85049        35.43351        -0.03806
C         32.96034        37.43654        -1.02920
C         31.79277        38.11715        -1.13674
C         34.32313         8.39421         0.10039
C         35.61908        10.44085        -0.41741
C         34.40463         9.79082        -0.23770
C         35.71329        11.83673        -0.96887
C         34.42336        12.60469        -0.88731
C         35.70259        14.74034        -0.89714
C         34.45864        14.03175        -0.97561
C         35.64613        16.17292        -0.93753
C         34.41920        16.87935        -0.71885
C         35.62520        19.05142        -0.67304
C         34.42941        18.30556        -0.63107
C         35.61289        20.46119        -0.36398
C         34.47368        21.13339         0.05355
C         35.72570        23.27907         0.30677
C         34.60266        22.41512         0.85700
C         35.70223        24.67623         0.30158
C         34.49283        25.43461         0.82588
C         35.48627        27.50181        -0.35537
C         34.36734        26.86758         0.31204
C         35.51298        28.95221        -0.84765
C         34.22004        29.69071        -0.42077
C         35.47553        31.84615        -0.42809
C         34.23433        31.16187        -0.20653
C         35.47097        33.23846        -0.52294
C         34.25758        33.96108        -0.40108
C         34.20894        35.34615        -0.69081
C         36.86330        12.62790        -0.41520
C         38.10146        14.67961         0.01574
C         36.91413        14.00837        -0.49814
C         38.53210        15.92365        -0.44380
C         36.79853        16.96937        -1.13035
C         38.16326        18.96674        -0.63761
C         36.88440        18.35096        -0.84571
C         38.20106        20.43146        -0.67701
C         36.86363        21.21788        -0.52754
C         38.10984        23.36454        -0.24121
C         36.90014        22.63662        -0.13578
C         38.11113        24.77712        -0.28886
C         36.81854        25.38449        -0.20107
C         38.43505        27.81829        -0.67804
C         36.56170        26.71730        -0.67449
C         38.09562        29.12454        -0.28137
C         36.79979        29.71881        -0.46831
C         36.70889        31.10081        -0.40530
C         39.42498        16.87676         0.09205
C         40.55381        19.04619        -0.03137
C         39.36712        18.27481        -0.23378
C         40.60064        20.45450        -0.07950
C         39.39939        21.16484        -0.28224
C         40.69488        23.38441        -0.01728
C         39.34614        22.59217        -0.04669
C         40.59719        24.80152        -0.33942
C         39.39307        25.51844        -0.35799
C         39.48005        26.96103        -0.29683
C         41.85168        21.20254        -0.09547
C         41.89846        22.55734        -0.21691
O         32.02902        13.14421        -2.40297
O         32.09524        16.48678         1.21395
O         22.21328        12.18338        -2.49273
O         19.27664         9.16806         0.93311
O         27.75451        24.67620        -0.23968
O         37.48231        21.00299        -1.82440
O         14.93428        31.64688         1.37323
O         28.66344        33.95659         2.13388
O         37.92207        16.35272        -1.65779
O         28.19963        35.68710        -1.72037
O         28.02135        20.03702        -0.88580
O         33.01672        20.06696        -1.56910
O         25.97305         7.72838        -1.54125
O         17.43699        10.00870        -1.95193
O         33.14412        23.41451         2.51102
O         10.98721        28.09732        -2.40537
O         16.91708        17.69565         2.16718
O         29.31389         8.92534        -1.93219
O         39.99590        23.00220         1.20565
O         25.17137        12.12100        -2.58303
O         15.00933        29.01077         1.27032
O         20.99046        28.18681        -0.78630
O         29.87966        36.42733         1.31046
O         22.36760        25.20819         2.80264
O          9.45934        17.64875         1.97761
O         23.98515        36.05052         2.17375
O         18.76989        36.12996         1.98932
O          7.51089        20.35825        -1.58162
O         29.46526        17.20519         1.18321
O         15.26738        18.46611        -0.97043
O         21.11908         9.86633        -2.06692
O         15.20306        14.24262         2.29675
O         12.80687        12.07268         2.22856
O         22.87060         7.27743         1.69540
O         33.14268        29.25925        -1.36364
O         12.61896        16.33611        -0.89858
O         23.52701        14.77692        -2.51786
O         26.42801        20.13064         2.27107
O         30.69298        15.97160        -2.16254
O         29.57686        26.24415         2.53538
O         23.58200        22.47551         2.86135
O         37.51385        27.22222        -1.55788
O         16.17649        33.25370        -1.66062
O         16.79302        24.87148        -1.59792
O         15.95408        36.06395         1.50182
O         27.96149        22.61483         2.76153
O         14.57000        10.17907        -1.46896
O         11.65275        24.84351        -2.15180
O         15.49336         6.41279        -1.60001
H         16.37937         6.69989        -1.96829
O         35.52220        28.94502        -2.29215
H         34.59609        28.77330        -2.57842
O         16.68365        22.75603         1.73732
H         16.88366        23.68752         1.97356
O         18.59991        33.68818        -1.17171
H         17.74851        33.48804        -1.69265
O         16.74173        33.60168         1.97787
H         16.12777        34.25867         2.37865
O         21.48688        14.16464         1.33147
H         20.94126        14.43278         2.10290
O         14.27907        21.45008         2.03568
H         15.06239        21.99647         2.29795
O         33.21094        24.51263        -0.96620
H         32.33432        24.17661        -1.24887
O         21.77252        30.95012         2.74763
H         21.75969        31.83931         3.16165
O         30.78851         6.67145        -1.59895
H         30.54585         7.21339        -2.38229
O         18.75288        22.88299        -1.33630
H         18.08080        23.26703        -1.94310
O         32.37247        31.19642         2.36751
H         32.18775        32.12039         2.68180
O         13.62878        35.90504        -2.53501
H         13.57011        34.92705        -2.70897
O         29.50539        13.15211         0.80901
H         29.67560        12.36814         1.37310
O         18.66461        15.78003         2.48089
H         18.24713        16.52267         2.97838
O         18.88649        25.46164         2.42670
H         18.91581        24.53681         2.77469
O         34.63467        25.51767         2.25043
H         34.08684        24.78079         2.66003
O         23.13919        19.52522        -1.45985
H         23.07804        18.71338        -2.00757
O         11.98554        33.82620         1.02238
H         11.04500        33.85230         1.29584
O         35.99404        11.65454        -2.42469
H         35.14945        11.40057        -2.85594
O         20.95192        14.64775        -2.22244
H         21.46902        14.36380        -3.01012
O         15.95515         6.99009         1.71846
H         16.90029         6.75616         1.81981
O         24.91629        25.78999         3.01458
H         24.10050        25.76799         3.56471
O         30.49743         7.47552         1.93583
H         30.41893         6.93223         2.74862
O         27.31619        38.06427        -2.06646
H         27.96776        37.87530        -2.77013
O         19.01510        22.64583         2.31826
H         19.71076        22.21130         2.85731
O         25.14357        24.15553        -0.25774
H         25.90590        24.15730        -0.88060
O         30.60522        27.25708        -0.81729
H         31.30917        27.77543        -1.26632
O          6.15280        20.79712         1.74653
H          5.44458        20.40123         2.29703
O         12.86143         7.47260        -1.16402
H         13.64844         7.15035        -1.66296
O          7.02490        25.12949        -2.76674
H          7.85225        25.47536        -3.16618
O         17.00749        20.93084        -1.40444
H         16.67398        20.03666        -1.64095
O         17.94957         7.42945        -2.03382
H         17.88903         8.36224        -2.37742
O         26.94926        26.95579        -0.89858
H         27.66385        26.36672        -1.23524
O         32.11751        27.10579         2.55254
H         31.34632        26.68188         3.00111
O         25.96586        15.38090        -2.75433
H         25.10093        15.45044        -3.22307
O         31.68298        10.01392         1.37801
H         31.32246         9.16210         1.73742
O         13.18742        24.58324         1.18391
H         13.23801        25.51095         1.49742
O         24.71353         9.00976         1.60257
H         24.18387         8.44112         2.21563
O         13.60834        33.24943        -2.25251
H         14.61512        33.15302        -2.34380
O         35.07223        21.94888         2.14350
H         34.44171        22.37711         2.80035
O         13.51787        23.02905        -2.14750
H         12.79032        23.55320        -2.56791
O         29.59829        29.69535         2.83080
H         30.49991        30.02690         3.04671
O          9.72682        26.88442         0.81018
H          8.88220        26.55940         1.18838
O         29.20802        13.67148        -2.76785
H         29.41509        14.46514        -3.30669
O         31.14483        33.57009         2.43758
H         30.29957        33.64626         2.94689
O         25.79132        23.58064         3.26969
H         25.98295        22.78366         3.80596
O         13.27314        13.90714        -0.82954
H         12.77336        14.53732        -1.40317
H          4.83599        18.47106         0.30666
H          3.62012        20.74011         0.12844
H          3.69278        23.11900        -0.43380
H          4.94026        25.21237        -0.76317
H          7.23749        14.07591         0.65161
H          6.02486        16.28504         0.45748
H          6.27930        27.38675        -1.38323
H          7.50183        29.50347        -1.25305
H          9.87058         9.75086         1.21772
H          8.45698        11.92568         0.90009
H          8.75488        31.64446        -1.30019
H          9.97413        33.74799        -1.26694
H         12.63750         5.54774         1.23620
H         11.14526         7.63774         1.13197
H         11.53012        36.04023         0.08115
H         12.53587        38.18703        -1.16598
H         14.44845         4.18199         0.58591
H         14.61901        39.38350        -0.79862
H         16.93007         4.47219         0.72380
H         17.15500        39.28277        -0.75226
H         19.41295         4.40779         0.38464
H         19.61360        39.24289        -0.45296
H         21.88969         4.42275         0.40141
H         22.05575        39.27088        -0.25375
H         24.44085         4.55464         0.97944
H         24.59285        39.32670         0.09717
H         26.89713         4.64044         0.97316
H         27.66059        38.10418         1.25446
H         29.37804         4.66626         0.89172
H         29.62533        39.27741        -1.50703
H         33.95795         5.70780         0.51732
H         31.80781         4.72387         1.23066
H         33.89943        37.90670        -1.35585
H         31.79392        39.13806        -1.54741
H         35.24708         7.85256         0.35086
H         36.55552         9.87068        -0.31563
H         36.40516        33.78061        -0.72915
H         35.11186        35.84904        -1.06720
H         37.73969        12.07878        -0.03872
H         38.67766        14.16388         0.79856
H         38.85363        29.73431         0.23646
H         37.63771        31.68598        -0.31090
H         40.20362        16.55188         0.79817
H         41.48611        18.50080         0.17908
H         41.53191        25.33851        -0.56295
H         40.39617        27.38864         0.13944
H         42.78415        20.62103        -0.15013
H         42.85929        23.06152        -0.39928
