         429
 CSIRO Nanostructure Databank - Neutral Graphene Oxide Data Set
C          1.45946         1.35204         0.95143
C          1.32362         2.59630         0.26385
C          2.70779         0.91117         1.29379
C          2.41537         3.41186         0.09691
C          1.17189         6.48973        -0.43317
C          1.16185         7.83825        -0.10928
C          2.35549         5.76056        -0.28352
C          2.35854         8.47703         0.23518
C          1.13794        10.69922         0.72422
C          1.16854        12.04703         0.89215
C          2.31970         9.96451         0.25144
C          2.38785        12.82024         0.77231
C          1.16537        15.01584         0.86872
C          1.13804        16.37383         0.91716
C          2.39463        14.25134         0.94487
C          2.33089        17.14328         1.29312
C          2.39238        18.59338         1.00737
C          3.87717         1.71568         1.05932
C          3.73501         3.10351         0.60551
C          5.13151         1.13826         1.16874
C          4.81421         3.98569         0.61240
C          3.54882         6.32287         0.22125
C          3.57509         7.74964         0.36304
C          4.73255         5.49755         0.62408
C          4.84862         8.47098         0.52253
C          3.62630        10.70465         0.28273
C          3.60810        12.14090         0.62003
C          4.87457         9.93145         0.45830
C          4.84452        12.84061         0.62276
C          3.62432        14.93503         1.00436
C          3.65044        16.36653         1.34963
C          4.85779        14.25615         0.77432
C          4.93752        17.12137         1.21352
C          3.54972        19.27702         0.90783
C          4.88146        18.64811         1.04299
C          6.29135         1.90514         0.88522
C          6.16105         3.40334         1.06270
C          7.50223         1.28016         0.66320
C          7.33371         4.17141         0.48332
C          6.04646         6.27941         0.76620
C          6.04189         7.76125         0.60923
C          7.31888         5.53252         0.51107
C          7.32236         8.48368         0.79892
C          6.04896        10.66540         0.50553
C          6.06559        12.11136         0.47719
C          7.33816         9.98498         0.69860
C          7.28401        12.81650         0.36145
C          6.08738        14.97009         0.58410
C          6.11816        16.42312         0.66689
C          7.26153        14.23891         0.31634
C          7.23882        17.15992         0.31802
C          6.05248        19.31074         0.47460
C          7.25074        18.61901         0.28814
C          8.66496         1.98937         0.23421
C          8.51756         3.43479        -0.03322
C          9.86452         1.35257        -0.02622
C          9.76776         4.19732        -0.41747
C          8.60501         6.27932         0.39218
C          8.62853         7.77080         0.59907
C          9.80175         5.64759        -0.18109
C          9.80478         8.51856         0.10231
C          8.57995        10.69437         0.30642
C          8.54269        12.10324         0.19208
C          9.77105         9.96924         0.05756
C          9.75300        12.82519        -0.01874
C          8.45890        14.95419        -0.16286
C          8.41545        16.46283        -0.23426
C          9.76444        14.25796        -0.12220
C          9.71120        17.20941        -0.34498
C          8.46527        19.32440         0.02427
C          9.72325        18.67248        -0.05359
C         11.05948         2.06427        -0.38343
C         11.05097         3.47835        -0.47861
C         12.28695         1.37846        -0.56793
C         12.25172         4.20346        -0.63295
C         10.97353         6.36542        -0.36894
C         10.93949         7.81585        -0.29070
C         12.23251         5.65966        -0.63348
C         12.12009         8.56896        -0.74717
C         10.97703        10.69146        -0.19020
C         10.97735        12.11542        -0.15508
C         12.19427        10.00730        -0.47287
C         12.21369        12.82101        -0.23657
C         10.96611        14.95568        -0.15894
C         10.99254        16.43202        -0.33097
C         12.22055        14.24561        -0.11787
C         12.30045        17.18127        -0.09827
C         10.93418        19.33010         0.11461
C         12.13673        18.55523         0.61573
C         13.46492         2.06813        -0.82164
C         13.47364         3.49309        -0.82947
C         14.71686         1.27434        -1.12377
C         14.70992         4.20805        -1.01030
C         13.43058         6.34716        -0.76193
C         13.43881         7.81614        -0.94406
C         14.69272         5.65525        -0.92401
C         14.67641         8.57750        -0.77371
C         13.42112        10.68951        -0.53645
C         13.44087        12.11182        -0.34014
C         14.67010         9.96034        -0.64978
C         14.67375        12.81145        -0.21267
C         13.44198        14.92492         0.06691
C         13.36875        16.33542         0.60164
C         14.67020        14.21740         0.05719
C         14.66366        17.08994         0.58067
C         13.47638        19.24761         0.54991
C         14.68086        18.51368         0.60132
C         15.99570         2.07593        -1.05375
C         15.93796         3.51783        -1.10742
C         17.20820         1.43822        -0.99360
C         17.16715         4.23914        -1.27796
C         15.86816         6.38332        -1.02918
C         15.94301         7.79820        -0.51896
C         17.09207         5.69670        -1.46485
C         17.19360         8.56252        -0.90356
C         15.92683        10.68737        -0.51669
C         15.91194        12.09556        -0.26782
C         17.16016        10.00950        -0.67904
C         17.13320        12.80663        -0.08036
C         15.90375        14.89128         0.34787
C         15.88620        16.31148         0.74305
C         17.12808        14.21126         0.23923
C         17.21338        17.07620         0.79863
C         15.95119        19.20439         0.57318
C         17.18084        18.54080         0.57883
C         18.45428         2.17298        -0.98065
C         18.40652         3.60220        -1.26284
C         19.64278         1.58683        -0.61567
C         19.64727         4.33909        -1.44256
C         18.38236         6.46833        -1.57261
C         18.35133         7.91885        -1.23777
C         19.65160         5.70907        -1.52693
C         19.62999         8.68394        -1.47022
C         18.38049        10.73704        -0.61487
C         18.36544        12.12065        -0.25725
C         19.62697        10.05710        -0.84638
C         19.59090        12.84347        -0.12784
C         18.38460        14.92507         0.36114
C         18.44315        16.32988         0.50914
C         19.60269        14.20129         0.18670
C         19.67419        17.05941         0.41340
C         18.41279        19.20302         0.35943
C         19.65275        18.51136         0.32455
C         20.86519         2.44907        -0.39249
C         20.93378         3.51102        -1.53787
C         22.08976         1.61896        -0.02873
C         22.18229         4.37455        -1.44588
C         20.92368         6.50538        -1.75816
C         20.85144         7.85923        -1.03029
C         22.17347         5.76322        -1.35706
C         22.15607         8.63347        -1.13567
C         20.83946        10.71115        -0.75455
C         20.83316        12.17042        -0.55331
C         22.10071        10.02114        -0.94544
C         22.13543        12.88512        -0.43413
C         20.87521        14.91045         0.47442
C         20.90549        16.38376         0.43838
C         22.17573        14.19911         0.26464
C         22.15877        17.07471         0.40079
C         20.87279        19.18628         0.14896
C         22.13652        18.52018         0.18797
C         23.32750         1.70506        -0.59270
C         23.44148         3.73684        -1.44742
C         24.60544         1.32661        -0.04754
C         24.62898         4.33768        -1.04950
C         23.39330         6.47807        -1.19043
C         23.40215         7.92878        -1.18549
C         24.61127         5.76714        -0.96476
C         24.64446         8.63573        -1.23459
C         23.33462        10.75401        -0.89309
C         23.38825        12.13182        -0.55700
C         24.54553        10.07916        -1.21404
C         24.60391        12.82950        -0.37494
C         23.44214        14.95814         0.20206
C         23.39408        16.37781         0.39917
C         24.61450        14.23163        -0.00885
C         24.65327        17.13979         0.49177
C         23.31824        19.21530        -0.08933
C         24.63141        18.63315         0.19057
C         25.77217         2.07094        -0.25451
C         25.90236         3.49141        -0.89374
C         26.98078         1.49287         0.21138
C         26.89736         4.24288         0.01597
C         25.81873         6.51044        -0.74974
C         25.89502         7.89266        -1.04345
C         26.96768         5.75240        -0.19847
C         27.23030         8.49579        -1.00974
C         25.64884        10.94963        -1.41985
C         25.80659        12.19097        -0.80895
C         27.51904         9.86558        -1.39950
C         27.15446        12.72856        -0.32748
C         25.92387        14.89117         0.15101
C         25.96091        16.40695         0.39441
C         27.14657        14.23937        -0.27657
C         27.19139        17.13404         0.03631
C         25.89675        19.34332        -0.29282
C         27.19255        18.54280        -0.17948
C         28.23341         2.16494         0.21735
C         28.26372         3.56160        -0.00057
C         29.45238         1.49419         0.54545
C         29.52128         4.22593        -0.10712
C         28.32256         6.40446        -0.20728
C         28.37285         7.80829        -0.62093
C         29.55634         5.62227        -0.26788
C         29.62841         8.49432        -0.45807
C         28.49428        10.64471        -0.87663
C         28.44253        12.15528        -1.01859
C         29.59555         9.96298        -0.12254
C         29.69195        12.78036        -0.43035
C         28.37334        14.93256         0.09838
C         28.41005        16.41282         0.01608
C         29.67705        14.18691        -0.01772
C         29.64769        17.07572        -0.12941
C         28.41117        19.20101        -0.29508
C         29.66361        18.50677        -0.23774
C         30.70472         2.10476         0.44075
C         30.77313         3.47241        -0.04347
C         31.84387         1.40121         1.04405
C         31.99588         4.19990        -0.20217
C         30.79673         6.32587        -0.75762
C         30.81757         7.79749        -0.45062
C         32.04747         5.62340        -0.32207
C         32.07744         8.48298        -0.35772
C         30.90574        10.64531        -0.38331
C         30.90272        12.06924        -0.37265
C         32.10255         9.91731        -0.36648
C         32.16449        12.75004        -0.22956
C         30.91554        14.94982        -0.10828
C         30.90296        16.34507        -0.12797
C         32.16709        14.18897         0.20858
C         32.15213        17.05515        -0.17519
C         30.90134        19.17951        -0.30690
C         32.14549        18.48405        -0.26160
C         33.14587         1.58178         0.65323
C         33.27431         3.56319        -0.19079
C         34.39021         1.33172         1.33397
C         34.46090         4.19294         0.16601
C         33.26020         6.31906        -0.21716
C         33.29241         7.76492        -0.30755
C         34.48943         5.63094         0.08077
C         34.53560         8.46383        -0.31815
C         33.35758        10.60898        -0.43077
C         33.35924        12.05041        -0.33021
C         34.55379         9.87518        -0.45421
C         34.62843        12.75981        -0.27309
C         33.42614        14.92408        -0.11416
C         33.39875        16.33516        -0.18028
C         34.63858        14.19555        -0.19883
C         34.63843        17.04494        -0.24779
C         33.38334        19.17232        -0.30951
C         34.62378        18.48619        -0.28304
C         35.55093         2.08048         1.15674
C         35.65363         3.42689         0.54247
C         36.71633         1.59395         1.87945
C         36.85905         4.10695         0.56547
C         35.70143         6.33938         0.16156
C         35.76783         7.73592        -0.10711
C         36.90968         5.62467         0.69790
C         37.01921         8.41293        -0.10608
C         35.84215        10.58526        -0.77283
C         35.83437        12.05742        -0.39626
C         37.08350         9.83711        -0.32251
C         37.06180        12.76342        -0.39735
C         35.87739        14.89978        -0.23609
C         35.86826        16.33576        -0.23006
C         37.10110        14.17109        -0.27430
C         37.10592        17.04725        -0.19072
C         35.85466        19.17625        -0.27181
C         37.08951        18.48442        -0.19474
C         37.93216         2.21514         1.84777
C         38.08646         3.41159         0.99225
C         39.13542         1.67572         2.46142
C         39.39481         4.12215         0.93256
C         38.21078         6.29605         0.33182
C         38.23764         7.64076         0.05170
C         39.49334         5.49066         0.23750
C         39.55554         8.31394        -0.13661
C         38.27973        10.52668        -0.32555
C         38.31017        11.99131        -0.54661
C         39.58112         9.82090        -0.28408
C         39.62146        12.73100        -0.36218
C         38.36953        14.87937        -0.16889
C         38.34618        16.34450        -0.08404
C         39.56548        14.19441        -0.13959
C         39.53694        17.05814         0.09132
C         38.31601        19.18278        -0.11882
C         39.53571        18.49344         0.04087
C         40.29880         2.36446         2.48863
C         40.37871         3.80731         2.05182
C         41.75592         4.29952         1.69191
C         40.72276         6.27696         0.66564
C         40.76035         7.63316         0.41524
C         41.87937         5.51447         1.11053
C         41.92419         8.44486         0.66790
C         40.79307        10.57874         0.12928
C         40.79570        11.96681         0.13531
C         41.94097         9.80399         0.53097
C         41.89811        12.74713         0.66536
C         40.89723        14.91905        -0.11610
C         40.79751        16.32645         0.49668
C         41.94802        14.09523         0.59082
C         42.04374        17.13743         0.27482
C         40.76928        19.19852         0.09877
C         41.99697        18.50284         0.15376
O         21.41474        12.91821        -1.72353
O         10.39442        16.87870        -1.60281
O          5.19163        18.00243         2.33690
O          5.25350         5.92655         1.95666
O          8.14732        15.66086        -1.42623
O         21.58334        14.24926         1.60338
O          7.38695         9.31373         2.01374
O          2.91708        10.47265        -0.99980
O         33.32458         2.22852        -0.58788
O         24.71492        18.13323         1.57168
O         12.60688         8.22175        -2.08739
O         26.62990        10.47515        -2.29479
O         29.01374        14.35931         1.36093
O         26.11712        15.49557         1.51066
O          8.94026         6.88420         1.71912
O         39.14626        12.35335        -1.71001
O         39.77131         8.92623        -1.44505
O         16.56701        16.61010         2.03201
O         27.51563         6.32381         1.05125
O         23.46723         2.38885        -1.81954
O          8.78781         3.77987        -1.44429
O          2.27676         4.46964        -0.79670
O         17.58324         6.17659        -2.78933
O         39.14104         3.07925        -0.04202
O          2.91898        16.70692         2.56118
O         20.63702         7.57763         0.37599
H         21.38480         7.03091         0.69819
O         32.12586        14.11839         1.69926
H         31.18294        14.00927         1.96124
O         26.50033         3.34391        -2.19563
H         25.85633         2.87580        -2.76817
O         40.68822        16.10862         1.94566
H         40.61624        16.98883         2.37192
O         13.01818        16.13043         2.02203
H         13.81955        15.78520         2.47240
O         28.41279        12.54204        -2.41466
H         27.78034        11.93329        -2.86467
O         12.86281        17.46829        -1.39754
H         12.10213        17.55561        -2.02076
O         36.82833         5.79827         2.17692
H         35.92524         5.52998         2.45252
O         19.72672         8.92610        -2.91046
H         18.89710         9.36061        -3.20103
O         30.74731         6.21832        -2.23245
H         30.83296         5.26778        -2.46065
O          6.26039         3.55616         2.51411
H          5.99206         4.48623         2.72567
O         20.92151         2.80741        -2.79108
H         20.94634         3.47044        -3.51187
O         11.82552        18.42548         2.03653
H         12.38034        17.69597         2.41201
O         41.30791        15.08401        -1.49969
H         41.20148        14.22053        -1.95278
O         27.18916        12.31578         1.06365
H         27.84843        12.89342         1.52805
O         16.02898         7.65253         0.95233
H         16.20621         8.54319         1.32473
O         35.91384        10.57128        -2.24169
H         36.80127        10.90263        -2.50054
O         39.91644         4.61408         3.18256
H         40.54942         4.49266         3.92045
O         29.33320        10.08272         1.31594
H         30.02790         9.57913         1.78957
O         26.02217        20.57947         0.41920
H         25.98269        20.37155         1.37648
O         21.06936         6.67864        -3.18844
H         20.45599         7.40127        -3.47173
O         20.61105         3.25448         0.80418
H         20.39605         2.64619         1.54192
O         26.36100         4.05975         1.35525
H         26.79129         4.74275         1.92061
O         39.68942         5.25394        -1.18478
H         39.41832         4.31857        -1.35544
O         14.79398         0.11260        -0.28694
H         14.86559         0.41065         0.64274
H          0.57342         0.72573         1.12099
H          0.36044         2.88026        -0.17891
H          2.84954        -0.09022         1.72398
H          0.27346         5.98631        -0.81063
H          0.23824         8.42142        -0.21848
H          0.22424        10.14073         0.97395
H          0.25472        12.55757         1.22699
H          0.23626        14.47941         0.63028
H          0.21021        16.91844         0.68669
H          1.43802        19.11209         0.82701
H          5.22323         0.06029         1.36979
H          3.52681        20.34533         0.64215
H          7.55606         0.18228         0.73049
H          6.00151        20.38657         0.24999
H          9.93361         0.26398         0.11898
H          8.44705        20.42241         0.09631
H         12.30703         0.28005        -0.51794
H         10.91972        20.41676         0.29893
H         14.62056         0.88797        -2.17862
H         13.51934        20.34683         0.60389
H         17.23890         0.34190        -0.90550
H         15.93961        20.29902         0.46078
H         19.67289         0.51875        -0.35110
H         18.41139        20.29444         0.21967
H         22.00832         1.09979         0.94087
H         20.86315        20.27944         0.02426
H         24.66859         0.44509         0.61123
H         23.26685        20.24985        -0.45973
H         26.95478         0.44353         0.54661
H         25.75145        19.60993        -1.37593
H         29.39622         0.45346         0.89876
H         28.41531        20.29523        -0.40830
H         31.62408         0.77116         1.91945
H         30.91157        20.27596        -0.39804
H         34.42666         0.50478         2.06148
H         33.38368        20.27157        -0.35767
H         36.59999         0.66376         2.45732
H         35.85823        20.27625        -0.28669
H         39.08559         0.65924         2.88197
H         38.31746        20.28188        -0.16075
H         41.19295         1.91284         2.94660
H         42.64321         3.72340         1.99486
H         42.88353         5.93472         0.94539
H         42.84698         7.94481         0.99514
H         42.88164        10.33076         0.74187
H         42.72282        12.21716         1.16328
H         42.81639        14.61971         1.01591
H         43.01610        16.62603         0.31494
H         40.76356        20.29521         0.02933
H         42.93374        19.07522         0.08261
