         651
 CSIRO Nanostructure Databank - Neutral Graphene Oxide Data Set
C          5.82000        31.76434        -0.22001
C          5.86545        33.09637         0.01871
C          8.33155        27.37314        -0.49650
C          7.87421        28.66189        -0.11329
C          6.96710        29.50155        -0.72086
C          8.35278        31.72390        -0.33142
C          7.03854        30.99223        -0.54778
C          8.34919        33.17063        -0.00806
C          7.10819        33.85637         0.06498
C          8.27797        36.00552         0.33129
C          7.07850        35.25052         0.22055
C          8.25782        37.42379         0.40066
C         10.79292        23.22994        -0.63243
C         10.85951        24.61943        -0.24311
C          9.72748        25.41325        -0.50641
C         10.81436        27.47627         0.22263
C          9.61181        26.79966        -0.19394
C         10.91739        28.93374         0.69863
C          9.70733        29.78598         0.48906
C         10.87573        31.77888        -0.37788
C          9.63888        31.01733        -0.06039
C         10.83069        33.22182        -0.13955
C          9.58782        33.88348         0.09293
C         10.71415        36.07083         0.54843
C          9.53291        35.31146         0.31907
C         10.67663        37.45443         0.70795
C          9.44552        38.17754         0.53739
C         10.71841        40.31274         0.29306
C          9.48251        39.60202         0.42111
C         10.79121        41.70806        -0.07367
C         13.36968        18.95870        -0.55076
C         13.28051        20.34596        -0.28021
C         12.04867        20.99437        -0.62832
C         13.40551        23.22150         0.61300
C         11.64888        22.24588        -0.12377
C         13.31462        24.61317         0.35318
C         12.07006        25.30040         0.17440
C         13.28520        27.46849         0.34516
C         12.03987        26.75177         0.25461
C         13.34531        28.88779         0.32161
C         12.17117        29.62014         0.22383
C         13.49482        31.77752        -0.07809
C         12.20717        31.00820        -0.25326
C         13.43124        33.27155         0.05968
C         12.10112        33.97787        -0.07754
C         13.21139        36.00678         1.04499
C         12.02445        35.39876         0.38785
C         13.18225        37.49484         1.25014
C         11.86523        38.27155         1.16635
C         13.19698        40.23178         0.17096
C         11.91924        39.60480         0.47800
C         13.25473        41.68499         0.00986
C         12.00572        42.39829        -0.17853
C         13.28435        44.48790        -0.59652
C         12.07189        43.80775        -0.44992
C         13.34982        45.90577        -0.66348
C         15.80402        14.68359        -0.68185
C         15.77549        16.07836        -0.66615
C         14.57968        16.81382        -0.57376
C         15.79971        18.95220        -0.21097
C         14.57245        18.23430        -0.47553
C         15.73265        20.30035         0.14596
C         14.49113        21.01962         0.17646
C         15.82055        23.14766         0.28321
C         14.55622        22.43433         0.41740
C         15.76603        24.59236         0.17073
C         14.57372        25.28738         0.21208
C         15.72581        27.38729         0.81495
C         14.58480        26.77314         0.00506
C         15.72784        28.86051         1.01259
C         14.69293        29.58284         0.16411
C         15.80779        31.74060         0.84192
C         14.67071        31.06097         0.46246
C         15.80878        33.19926         0.95124
C         14.57934        33.96024         0.72219
C         15.66814        36.05318         1.57779
C         14.50710        35.29184         1.04740
C         15.67590        37.52404         1.34302
C         14.48342        38.17763         1.10853
C         15.73211        40.29535         0.60592
C         14.50489        39.50320         0.47741
C         15.70769        41.66850         0.36951
C         14.48243        42.33928         0.04587
C         15.85969        44.43765        -0.50504
C         14.55070        43.72553        -0.47209
C         15.87731        45.91953        -0.89872
C         14.55642        46.63557        -0.66410
C         15.78869        48.78784        -0.68697
C         14.57188        48.03618        -0.65899
C         15.79456        50.18914        -0.82613
C         18.19789        10.35507        -0.95237
C         18.20322        11.75964        -0.79540
C         16.99916        12.51041        -0.77131
C         18.27883        14.59158        -0.75391
C         17.01802        13.91662        -0.75295
C         18.30705        16.05944        -0.89570
C         17.01631        16.87620        -0.99929
C         18.24590        18.83387         0.04986
C         17.06873        18.22803        -0.28662
C         18.28085        20.24463         0.51934
C         16.95565        21.00048         0.72264
C         18.30805        23.12035        -0.13343
C         17.01879        22.46680         0.32473
C         18.35683        24.63326         0.04756
C         17.04301        25.35278         0.11484
C         18.29668        27.41013         0.96746
C         17.03905        26.67401         0.79692
C         18.28694        28.80856         1.29695
C         17.00221        29.55717         1.33817
C         18.20394        31.67851         1.50485
C         17.04853        31.03484         1.18917
C         18.24646        33.16480         1.70203
C         16.95921        33.85404         1.32341
C         18.24941        36.01402         1.39223
C         16.98255        35.30118         1.58901
C         18.22645        37.51177         1.59957
C         16.93475        38.22490         1.20296
C         18.22652        40.23438         0.40660
C         16.94988        39.58198         0.90352
C         18.23014        41.76001         0.36439
C         16.94084        42.45046         0.80564
C         18.26387        44.61026         0.29116
C         16.89943        43.98925         0.52373
C         18.25790        45.99794        -0.01883
C         17.07878        46.67892        -0.37516
C         18.24585        48.85440        -0.46845
C         17.04463        48.09317        -0.50945
C         18.24067        50.21995        -0.75886
C         17.00116        50.93258        -0.91151
C         18.18811        53.10387        -1.21890
C         17.00594        52.34586        -1.10426
C         18.21835        54.50372        -1.34464
C         20.62931         6.15445        -1.82484
C         20.62355         7.52856        -1.49740
C         19.41281         8.23653        -1.30842
C         20.66040        10.31461        -0.87872
C         19.40403         9.62375        -1.04114
C         20.67954        11.71011        -0.62405
C         19.45849        12.44593        -0.64225
C         20.74467        14.52728        -0.29461
C         19.48079        13.86978        -0.57520
C         20.80015        15.95765        -0.20235
C         19.58215        16.73786        -0.52142
C         20.74137        18.89004        -0.55153
C         19.57843        18.11294         0.09582
C         20.83641        20.29180        -0.00979
C         19.58162        20.98096         0.34195
C         20.75112        23.13874         0.43829
C         19.57751        22.45819         0.34125
C         20.78351        24.55301         0.95191
C         19.53465        25.32028         0.62081
C         20.76879        27.34850         1.46914
C         19.51100        26.67072         0.93616
C         20.77286        28.82334         1.05147
C         19.47465        29.50874         1.40695
C         20.73635        31.68778         1.58618
C         19.46110        30.92934         1.90813
C         20.73510        33.07746         1.37199
C         19.45062        33.79924         0.98880
C         20.69042        35.97194         1.18142
C         19.45807        35.30842         1.22246
C         20.73993        37.42352         0.96642
C         19.44537        38.17950         0.99446
C         20.67255        40.34515         1.14289
C         19.48394        39.65220         1.00226
C         20.73451        41.77450         1.02220
C         19.51719        42.49793         0.59504
C         20.68154        44.70649         0.83399
C         19.46088        43.97764         0.64766
C         20.74591        46.07696         0.58466
C         19.55366        46.69209        -0.03037
C         20.68746        49.01432         0.17965
C         19.54569        48.16123        -0.31397
C         20.84142        50.16534        -0.82750
C         19.51684        50.89612        -1.08403
C         20.72245        53.16877        -1.18374
C         19.48124        52.38533        -1.30910
C         20.71024        54.53667        -1.28557
C         19.43940        55.23909        -1.44203
C         20.67013        57.38942        -1.62393
C         19.45604        56.62170        -1.62065
C         20.63801        58.73856        -1.94746
C         23.04319         3.45865        -2.78309
C         21.84679         4.09850        -2.47055
C         23.07874         6.17986        -2.02628
C         21.83544         5.47195        -2.09837
C         23.10008         7.54527        -1.63159
C         21.87917         8.22815        -1.37655
C         23.13064        10.30103        -0.86424
C         21.88590         9.60976        -1.03270
C         23.14182        11.65052        -0.41984
C         21.93136        12.37167        -0.35354
C         23.14643        14.48880         0.30695
C         21.91513        13.78479        -0.10268
C         23.22484        15.95317         0.19382
C         21.99751        16.65332        -0.06591
C         23.32079        18.84391        -0.12862
C         22.04458        18.10786        -0.38162
C         23.31407        20.32523         0.00802
C         22.03851        20.96706         0.09482
C         23.30163        23.20203         0.03005
C         22.01880        22.44227         0.13594
C         23.27101        24.69005         0.22517
C         22.04028        25.35127         0.67683
C         23.29441        27.41315         1.20104
C         22.05217        26.68156         1.01174
C         23.24079        28.83900         1.55215
C         22.01654        29.54552         1.51499
C         23.20421        31.69588         1.69835
C         21.97809        30.97016         1.64073
C         23.17537        33.12073         1.60823
C         21.95187        33.78929         1.36799
C         23.17587        36.01707         1.42923
C         21.97317        35.23919         0.94106
C         23.14291        37.43181         1.56190
C         21.97657        38.15841         1.27531
C         23.17471        40.39813         1.90526
C         21.86177        39.57973         1.60874
C         23.12172        41.84387         1.66605
C         21.91304        42.49284         1.35038
C         23.13160        44.77990         1.49851
C         21.85276        43.98583         1.38230
C         23.15903        46.16653         1.00489
C         21.97960        46.84681         0.68771
C         23.19177        48.99771         0.30971
C         22.00074        48.26862         0.35711
C         23.26879        50.38072        -0.11747
C         21.97295        51.06481        -0.37598
C         23.25012        53.12158        -1.18244
C         21.96154        52.49904        -0.72547
C         23.19839        54.62313        -1.14332
C         21.96364        55.29144        -1.24342
C         23.16612        57.40650        -1.47776
C         21.94077        56.70794        -1.38774
C         23.18595        58.87044        -1.58189
C         21.82319        59.59031        -1.85255
C         23.11532        61.51234        -2.70050
C         21.90627        60.87669        -2.53649
C         24.25709         4.14971        -2.75064
C         25.51362         6.24601        -2.37725
C         24.30112         5.51665        -2.37598
C         25.57545         7.59970        -1.97328
C         24.34768         8.25226        -1.53652
C         25.61885        10.32252        -0.98819
C         24.35014         9.59540        -1.14125
C         25.54736        11.84071        -1.01056
C         24.48331        12.23524         0.02860
C         25.71320        14.51521         0.18926
C         24.47500        13.73332         0.31784
C         25.71098        15.90139         0.38043
C         24.44800        16.60533         0.39683
C         25.72110        18.82260         0.70927
C         24.44374        18.08416         0.50420
C         25.81579        20.24373         0.14249
C         24.52314        21.04019         0.13192
C         25.78853        23.22372         0.38521
C         24.57539        22.46064         0.19225
C         25.82695        24.60161         0.55877
C         24.58836        25.41723         0.46032
C         25.75414        27.31531         1.62198
C         24.51096        26.74255         1.09031
C         25.71269        28.84375         1.98992
C         24.44986        29.55815         1.76740
C         25.68860        31.68206         1.80678
C         24.45689        30.98310         1.76988
C         25.69912        33.18500         1.96868
C         24.39188        33.87937         1.67235
C         25.64070        36.04469         1.51015
C         24.37117        35.27638         1.61681
C         25.66871        37.44232         2.02235
C         24.36349        38.18448         1.99512
C         25.66750        40.30028         1.58242
C         24.43753        39.65807         1.83940
C         25.71002        41.79638         1.68444
C         24.40073        42.56476         1.84625
C         25.74579        44.73665         1.36926
C         24.43831        44.06572         1.71006
C         25.73190        46.14178         0.92037
C         24.45253        46.87613         1.06854
C         25.74940        49.01708         0.50961
C         24.43627        48.34674         0.77248
C         25.73979        50.48037         0.20916
C         24.45210        51.13341        -0.15040
C         25.68945        53.22811        -0.76472
C         24.49837        52.50161        -0.59837
C         25.67631        54.59446        -1.20017
C         24.42635        55.31413        -1.26895
C         25.64093        57.41240        -1.75424
C         24.40537        56.71679        -1.48686
C         25.62132        58.78782        -2.05323
C         24.42019        59.53847        -2.02666
C         24.35511        60.87770        -2.43268
C         26.77302         8.32783        -2.10648
C         27.98149        10.58744        -1.93470
C         26.93600         9.65685        -1.56424
C         28.04518        11.89035        -1.36495
C         26.89235        12.47229        -0.77783
C         28.25076        14.56732        -0.24258
C         26.95884        13.76958        -0.10922
C         28.22670        16.02593         0.01008
C         26.97549        16.67122         0.42422
C         28.25983        18.78423         0.80688
C         26.98260        18.02841         0.69419
C         28.20845        20.28103         0.88772
C         26.87695        21.02025         0.95024
C         28.24519        23.14830         1.03705
C         27.07584        22.44143         0.41578
C         28.18189        24.57525         1.51092
C         27.14768        25.35772         0.67131
C         28.22646        27.41110         1.64699
C         27.05548        26.73308         1.30766
C         28.19217        28.82774         1.92992
C         26.99400        29.55225         1.94830
C         28.15464        31.70809         1.68705
C         26.94850        30.99723         1.83396
C         28.13666        33.08635         1.17685
C         26.83816        33.82064         1.19138
C         28.20737        35.98623         1.30489
C         26.90414        35.31801         1.20505
C         28.25284        37.42101         1.55431
C         26.96776        38.19440         1.88574
C         28.07283        40.26517         0.83974
C         26.90089        39.61066         1.53772
C         28.24290        41.74799         1.21884
C         26.93571        42.53888         1.26303
C         28.20900        44.66094         0.86912
C         26.94601        43.89958         1.11878
C         28.15827        46.04902         0.34822
C         26.89869        46.78529         0.45903
C         27.96653        48.75128        -0.67638
C         26.90217        48.17058         0.15607
C         28.03910        50.23762        -0.87095
C         27.01954        51.12665        -0.23717
C         28.18754        53.10119        -1.35545
C         27.01143        52.56529        -0.62008
C         28.23243        54.60501        -1.53102
C         26.88110        55.29086        -1.51029
C         26.84670        56.65350        -1.79062
C         29.23054        12.67925        -1.53128
C         30.43021        14.81973        -1.38682
C         29.32817        14.00385        -1.08463
C         30.53715        16.15514        -0.88964
C         29.39100        16.73374        -0.18719
C         30.57513        18.96176        -0.32614
C         29.58515        18.06742         0.49566
C         30.60352        20.39364         0.18264
C         29.30079        21.13152         0.25381
C         30.66117        23.27554         0.58133
C         29.41452        22.49542         0.85992
C         30.70765        24.62058         1.23308
C         29.52666        25.28891         1.48795
C         30.74492        27.39762         1.79839
C         29.52887        26.72879         1.66370
C         30.78088        28.84624         1.87510
C         29.47575        29.53322         2.10989
C         30.70100        31.79121         1.67631
C         29.42891        31.06843         1.99800
C         30.61379        33.08705         0.93392
C         29.37633        33.86540         1.06635
C         30.65089        35.99894         0.83711
C         29.39517        35.26545         1.02270
C         30.65022        37.39521         0.87932
C         29.45177        38.16174         1.08741
C         30.62450        40.26944         0.56211
C         29.40955        39.53773         0.91513
C         30.60346        41.66585         0.31982
C         29.28814        42.41474         0.29271
C         30.61673        44.54829        -0.00614
C         29.46062        43.88087         0.62171
C         30.53046        45.91527        -0.35575
C         29.28101        46.62188        -0.23699
C         30.46126        48.68241        -1.16014
C         29.16178        47.88936        -1.06600
C         30.43648        50.10522        -1.42422
C         29.30552        50.87659        -1.31103
C         29.27211        52.30255        -1.59088
C         31.68342        16.89766        -1.15029
C         32.98242        19.09957        -1.20301
C         31.96544        18.22312        -0.48891
C         33.46130        20.17506        -0.49658
C         31.75054        21.03836         0.57947
C         33.12493        23.12633         0.53277
C         31.90917        22.46331         0.68751
C         33.14285        24.54151         0.91886
C         32.00221        25.23949         1.31374
C         33.31969        27.38552         1.85600
C         32.02062        26.57457         2.04699
C         33.28277        28.88233         1.72914
C         31.96164        29.56439         1.74983
C         33.17526        31.69698         0.97715
C         32.00096        31.04350         1.63200
C         33.15978        33.05796         0.71545
C         31.88266        33.79774         0.62500
C         33.07667        35.93566         0.32839
C         31.88094        35.27351         0.59472
C         32.97905        37.40143        -0.03517
C         31.96949        38.12701         0.84213
C         33.04831        40.26608         0.11847
C         31.85554        39.58151         0.44784
C         33.03453        41.67378        -0.00037
C         31.80545        42.37018         0.06457
C         32.97510        44.45963        -0.68960
C         31.78637        43.80226        -0.19741
C         32.87612        45.84430        -1.05871
C         31.69839        46.56567        -0.89397
C         31.64225        47.98679        -1.17576
C         34.31392        21.27398        -0.81912
C         35.42557        23.34871        -0.35929
C         34.29954        22.52451        -0.14035
C         35.57619        24.63460         0.20252
C         34.47244        25.19383         1.01278
C         35.72595        27.42284         0.95470
C         34.56653        26.65439         1.42362
C         35.81207        28.89382         1.28647
C         34.46917        29.60551         1.18461
C         35.51387        31.58168         0.03420
C         34.39248        30.92279         0.81519
C         35.52699        33.08411         0.16290
C         34.36590        33.79590         0.37154
C         35.49883        35.97946        -0.10851
C         34.32277        35.24592         0.20501
C         35.49392        37.38899        -0.29122
C         34.29573        38.13293        -0.09614
C         35.49790        40.24790        -0.45632
C         34.28702        39.52537        -0.10638
C         35.48608        41.63664        -0.53496
C         34.32934        42.44739        -0.03237
C         34.18633        43.77688        -0.71349
C         36.74695        25.36750         0.04105
C         38.05163        27.44645         0.14813
C         36.84435        26.74853         0.41847
C         38.15381        28.86050         0.25821
C         36.94892        29.59588         0.59105
C         38.02499        31.62979        -0.18360
C         36.87667        30.95635         0.25437
C         37.92318        33.01479        -0.63651
C         36.79411        33.78836        -0.04290
C         37.99492        35.97431        -0.72080
C         36.79974        35.28737        -0.15550
C         37.92459        37.37232        -0.85629
C         36.71866        38.09635        -0.61461
C         36.67978        39.49322        -0.73750
C         39.31734        29.53815        -0.11590
C         40.49390        31.72142        -0.70481
C         39.38511        31.02516         0.05081
C         40.41970        32.99058        -1.13668
C         39.16148        33.78099        -1.07531
C         39.16382        35.23736        -0.95791
O         27.22822        33.20501        -0.04389
O         13.03544        36.56709         2.39273
O         27.38549        49.41237        -1.90625
O         26.11134        35.97049         0.10967
O         18.96436        42.18704        -0.80659
O         29.18720        44.37472         1.96534
O         19.95694        37.70152        -0.28546
O         31.59776        31.82786         2.82543
O         16.13942        26.64390         1.98197
O         27.45583        52.12307         0.72800
O         29.47406        30.39445         3.28835
O         28.71658        21.40344        -1.14187
O         22.46489        59.56199        -0.53133
O         12.26906        22.59037         1.10523
O         24.95360        37.66558         3.25727
O         13.93413        39.47202        -0.88278
O         27.90986        37.81988         2.94798
O         27.96750        13.81148         0.97586
O         17.79570        25.33483        -1.13277
O         33.58100        28.21405         3.04291
O         22.27901        39.91614         2.95655
O         12.24818        35.10017        -1.03251
O         16.51418        44.66084         1.71058
O         21.74812        52.07717         0.67802
O         25.23464        44.66360         2.76549
O         25.93428        50.03032         1.58985
O         22.99489        18.36526        -1.48568
O         13.83261        32.64632        -1.20224
O         37.16286        34.61299         1.11683
O         19.12966        20.45465         1.72295
O         34.89229        25.56286         2.36798
O         16.24988        35.64699         2.85709
O         22.25740        44.56868         2.66552
O         15.99015        29.24204         2.38675
O         32.91261        20.31056         0.80829
O         24.81908        18.62245         1.83145
O         24.39652        47.88303         2.16065
O         26.56489         9.76332        -0.11895
O         19.50150        51.43491        -2.45512
O         15.49757        43.63082        -1.65599
O         19.24502        16.56902        -1.92949
O         11.58597        31.27275        -1.55039
O         38.15203        33.27678        -2.05909
O         28.45576        19.53441         2.10107
O          7.79624        31.53528        -1.69322
O         22.54473        22.89095        -1.19644
O         31.08708        33.11296        -0.46619
O         23.74513        13.99214         1.56246
O         25.18324        42.14940         3.00537
O         27.53023        22.31714        -1.02754
O          8.54014        29.21300         1.01117
O         19.87653        47.25335        -1.38518
O         15.12577        29.53034        -1.18027
O         25.63456        27.79802         2.99501
O         23.95370        25.37893        -0.86800
O         16.96498        42.30156         2.24302
H         16.73024        43.22158         2.57929
O         14.83450        26.96366        -1.40399
H         14.93317        27.95651        -1.57652
O         35.20482        31.29880        -1.37543
H         34.36800        31.76026        -1.59771
O         34.65361        42.76043         1.39128
H         34.60526        41.91818         1.89295
O         27.68085        24.58405         2.86733
H         28.33936        24.15190         3.44983
O         20.28388        49.55539         1.45316
H         20.99289        50.14746         1.78679
O         30.16302        17.71808         1.77742
H         29.87353        18.40269         2.42687
O         36.17408        28.94332         2.71218
H         35.40376        28.56761         3.21063
O         26.03179        33.46583         3.36910
H         25.32203        33.09709         3.93654
O         25.04368        12.28478        -2.29952
H         25.74517        12.14618        -2.97051
O         26.43938        21.13907         2.30425
H         26.72970        20.33073         2.78515
O         19.33259        33.60920        -0.44648
H         18.47184        33.97569        -0.74295
O         23.28644        52.76823        -2.61553
H         24.05866        53.22264        -3.01528
O         20.79176        24.39091         2.43215
H         20.04352        23.80570         2.68104
O         18.27553        39.77317        -0.97617
H         18.77087        40.45824        -1.48682
O         24.83668        11.57572         1.25833
H         24.40911        12.07363         1.99052
O         26.26112        20.02760        -1.21309
H         26.28214        20.89230        -1.68213
O         32.56123        17.84644         0.76801
H         31.84555        17.52063         1.36910
O         16.06024        45.98684        -2.34443
H         15.77943        45.10882        -2.70230
O         20.72178        27.27951         2.90862
H         20.79683        26.32711         3.15379
O         28.91132        54.99244        -2.72505
H         29.80530        54.59540        -2.72292
O         19.45606        30.81303         3.37253
H         18.76576        30.16068         3.61966
O         32.49092        38.10916         2.20228
H         31.81427        38.50109         2.79413
O         30.55071        23.59229        -0.86473
H         30.12579        22.82535        -1.31576
O         28.77428        41.73615         2.55428
H         28.86613        42.67464         2.84854
O         11.06081        28.83338         2.16445
H         10.19976        28.50476         2.50514
O         11.55354        38.64553         2.55669
H         11.78016        37.86314         3.11171
O         19.90119        17.89820         1.48982
H         19.75943        18.76305         1.95414
O         31.96527        26.20946         3.45215
H         32.35076        26.96312         3.95613
O         21.27908        49.58075        -2.06691
H         20.89944        50.12102        -2.79819
O         18.33775        22.84023        -1.56903
H         18.04683        23.66989        -2.02119
O         16.68948        21.00356         2.16014
H         17.56645        20.96702         2.60987
O         32.43795        37.43696        -1.39148
H         33.05395        36.95207        -1.97949
O         16.83683        17.22187        -2.40106
H         17.73946        17.38787        -2.76421
O         18.47917        33.43967         3.10763
H         17.79515        32.97574         3.63348
O         27.67962        40.19009        -0.58279
H         27.70013        39.24757        -0.85586
O         30.04546        19.00427        -1.67365
H         29.34047        19.68787        -1.73562
O         28.82549        42.46342        -1.07987
H         28.52921        41.55618        -1.33614
O         28.91405        47.39576        -2.41491
H         28.39673        48.09765        -2.87597
O         18.35265        37.70776         3.04204
H         17.64442        37.17028         3.46835
O         20.83910        28.80901        -0.40620
H         20.82134        29.73376        -0.73121
O         20.44907        19.01132        -1.95839
H         21.31268        19.10754        -2.42135
O         39.68911        31.28815         1.48003
H         39.04935        30.77017         2.01581
O         27.67631        25.52695        -0.66371
H         27.73773        24.64334        -1.08909
O         22.08452        35.19184        -0.53104
H         21.30009        34.69771        -0.86432
H          4.85985        31.22960        -0.17402
H          4.93353        33.64455         0.22417
H          7.67392        26.77309        -1.14472
H          6.41413        29.14741        -1.60447
H          6.10994        35.77144         0.25056
H          7.29259        37.94514         0.31314
H         10.05365        22.95698        -1.40086
H          8.83488        24.91055        -0.91043
H          8.53734        40.14619         0.27550
H          9.85095        42.25523        -0.23857
H         12.45054        18.42016        -0.82649
H         11.40997        20.49055        -1.36998
H         11.13053        44.37578        -0.50867
H         12.40062        46.46617        -0.65107
H         14.85538        14.13390        -0.57795
H         13.61719        16.27911        -0.55018
H         13.61674        48.58498        -0.63490
H         14.83646        50.71946        -0.93272
H         17.23880         9.82868        -1.06605
H         16.03523        11.98194        -0.80572
H         16.03806        52.86902        -1.13796
H         17.26885        55.06044        -1.36176
H         19.67388         5.61387        -1.89761
H         18.45691         7.70295        -1.41649
H         18.50397        57.15772        -1.75409
H         19.69576        59.18763        -2.29711
H         23.03218         2.39802        -3.07111
H         20.89664         3.54739        -2.51683
H         23.13523        62.51138        -3.15948
H         20.98675        61.31793        -2.94808
H         25.19100         3.63497        -3.01814
H         26.43959         5.74141        -2.69100
H         26.55942        59.29161        -2.33099
H         25.28599        61.40383        -2.68897
H         27.59191         7.90052        -2.70377
H         28.78382        10.25047        -2.60611
H         28.81816        55.00430        -0.64078
H         27.78527        57.16699        -2.04487
H         30.07110        12.24395        -2.09146
H         31.25842        14.40710        -1.98196
H         31.38919        50.58573        -1.69917
H         30.18498        52.74249        -2.02573
H         32.50461        16.40613        -1.69628
H         33.28110        18.89999        -2.24104
H         33.77633        46.35491        -1.43265
H         32.58721        48.51311        -1.38361
H         35.09567        21.13173        -1.58205
H         36.25756        22.94779        -0.95780
H         36.41026        42.16737        -0.81176
H         35.09006        44.27875        -1.09222
H         37.59720        24.91061        -0.48641
H         38.91742        26.87841        -0.22352
H         38.81444        37.92647        -1.19049
H         37.59738        40.03390        -1.01360
H         40.20889        28.97220        -0.42284
H         41.44700        31.17696        -0.79219
H         41.29718        33.46626        -1.60278
H         40.11385        35.77175        -1.11193
