         480
 CSIRO Nanostructure Databank - Neutral Graphene Oxide Data Set
C         39.63090        48.74162         4.36305
C         38.97850        49.18542         5.47009
C         39.60195        51.51061         5.06698
C         38.96052        50.58127         5.82353
C         41.05554        47.90931         1.84903
C         41.17328        49.21695         2.36915
C         40.17470        49.68557         3.37680
C         41.17752        52.04481         3.12333
C         40.16902        51.15464         3.75860
C         41.07401        53.40580         3.23312
C         43.04178        48.22633         0.48463
C         41.96392        47.42515         0.92548
C         43.15822        49.55232         0.98948
C         42.20405        50.05086         1.91734
C         43.16858        52.37752         1.59308
C         42.41608        51.42981         2.51001
C         43.02913        53.78437         1.79809
C         42.02610        54.27594         2.63300
C         44.65996        46.17521        -2.21934
C         43.79059        46.53685        -1.20350
C         45.17524        48.50201        -0.74407
C         44.01133        47.72821        -0.47242
C         45.23689        49.85264        -0.27433
C         44.22539        50.39904         0.50725
C         45.16611        52.66993         0.17133
C         44.16353        51.84051         0.74332
C         45.07540        54.13137         0.26850
C         43.91570        54.73302         1.07320
C         45.15880        56.86464         1.10176
C         44.12726        56.10634         1.55379
C         47.80566        44.51363        -3.26965
C         47.77830        45.90864        -3.05671
C         45.83797        46.91746        -2.42591
C         47.51347        48.67940        -1.69826
C         46.19358        48.01734        -1.63685
C         47.55137        50.02584        -1.24115
C         46.23432        50.72535        -0.99195
C         47.47751        52.87732        -0.60573
C         46.33340        52.10924        -0.40972
C         47.47137        54.30262        -0.39324
C         46.28203        54.94182         0.05156
C         47.41637        57.11576         0.02267
C         46.26224        56.32613         0.32839
C         47.42259        58.54139         0.27856
C         50.06892        44.45147        -2.41294
C         48.91133        43.78332        -2.88739
C         50.05202        45.87612        -2.27375
C         48.82805        46.61395        -2.46194
C         49.96298        48.74560        -1.91199
C         48.74289        48.03020        -2.04974
C         49.96386        50.11370        -1.55452
C         48.74514        50.74695        -1.20429
C         49.83228        52.96027        -1.54405
C         48.80992        52.18208        -0.71626
C         49.83854        54.45815        -1.24662
C         48.61812        55.09209        -0.68490
C         49.81458        57.29013        -0.72599
C         48.58572        56.48631        -0.47873
C         49.77672        58.78482        -0.42805
C         48.51439        59.32382         0.10584
C         52.43576        41.56138        -1.91654
C         51.30136        42.28544        -2.09394
C         52.48799        44.44276        -2.01241
C         51.29544        43.73011        -2.20559
C         52.48198        45.87030        -1.91030
C         51.26778        46.57134        -2.03455
C         52.50594        48.72602        -1.72377
C         51.27091        48.06270        -2.28385
C         52.48309        50.18991        -1.60880
C         51.19398        50.90031        -1.49033
C         52.37378        53.03004        -0.99211
C         51.18341        52.27493        -1.36099
C         52.37710        54.39442        -0.85152
C         51.15293        55.19395        -1.06647
C         52.28521        57.29963        -0.32072
C         51.12112        56.60320        -0.61697
C         52.24073        58.74175        -0.14574
C         51.06178        59.46282        -0.13793
C         52.22073        61.61670         0.13891
C         51.07705        60.89362         0.12591
C         55.00803        40.08192        -1.50752
C         54.99079        41.49236        -1.59120
C         53.76058        42.18497        -2.04042
C         54.99165        44.41130        -1.62186
C         53.76914        43.71823        -2.04873
C         54.93040        45.84065        -1.57151
C         53.73980        46.57211        -1.70946
C         54.88774        48.73432        -1.10712
C         53.70010        48.02866        -1.54794
C         54.89713        50.09659        -0.78947
C         53.70265        50.90372        -1.09920
C         54.84586        52.98360        -0.35422
C         53.52959        52.23689        -0.40516
C         54.83714        54.39007        -0.23993
C         53.49889        55.07638        -0.08865
C         54.76147        57.25614        -0.11057
C         53.55829        56.58669        -0.23558
C         54.79225        58.70645         0.19262
C         53.50207        59.46252         0.16981
C         54.81712        61.67809        -0.19266
C         53.51463        60.94067        -0.10343
C         54.91003        63.14890        -0.05157
C         57.35219        40.09351        -0.85510
C         56.16107        39.39560        -1.18171
C         57.34414        41.51901        -0.88764
C         56.16530        42.22779        -1.30300
C         57.40350        44.36318        -1.04175
C         56.16912        43.68080        -1.34105
C         57.43619        45.80549        -1.08658
C         56.21176        46.54783        -1.43654
C         57.35514        48.60507        -0.46306
C         56.17594        48.02644        -1.15547
C         57.32087        50.07795        -0.11923
C         56.07123        50.81596        -0.40710
C         57.29847        52.90663         0.08708
C         56.04337        52.22274        -0.27713
C         57.30194        54.44270         0.05372
C         56.02794        55.13901        -0.17716
C         57.25377        57.28302        -0.31127
C         56.04154        56.57145        -0.18983
C         57.33199        58.71461        -0.27001
C         56.10886        59.44859         0.13736
C         57.35958        61.64212        -0.36486
C         56.11118        60.94437         0.02305
C         57.35301        63.05063        -0.39784
C         56.10367        63.76901        -0.16497
C         59.78295        37.30010        -0.16549
C         58.66305        37.97733        -0.57166
C         59.61477        40.12960         0.13375
C         58.53655        39.40219        -0.42535
C         59.62815        41.53546         0.08980
C         58.52639        42.22476        -0.49534
C         59.81784        44.32901        -0.45722
C         58.55628        43.64814        -0.65744
C         59.88282        45.75134        -0.88335
C         58.61507        46.51055        -0.90104
C         59.83219        48.64988        -0.55439
C         58.65389        47.93712        -0.69855
C         59.82124        50.05863        -0.21497
C         58.61438        50.77123        -0.07197
C         59.77947        52.92878        -0.05259
C         58.60557        52.21353        -0.05250
C         59.84245        54.39575        -0.36853
C         58.54881        55.12515        -0.20114
C         59.76404        57.29390        -0.27080
C         58.50869        56.53342        -0.70471
C         59.77248        58.69333        -0.80116
C         58.50086        59.43615        -0.56685
C         59.78054        61.59440        -0.69934
C         58.55147        60.88813        -0.55945
C         59.78713        63.00041        -0.63025
C         58.58328        63.74834        -0.54510
C         59.79112        65.89219        -0.69001
C         58.63087        65.19112        -0.69186
C         62.22053        35.84179         0.74139
C         61.92360        37.22951         1.06337
C         60.82404        37.93403         0.58396
C         61.89688        40.11630         1.31001
C         60.59905        39.38091         1.00123
C         61.98783        41.61583         1.29162
C         60.77900        42.31771         0.64345
C         62.14460        44.46264         0.37406
C         60.89925        43.69968         0.11391
C         62.42137        45.68600        -0.50243
C         61.17187        46.48680        -0.89313
C         62.22902        48.61341         0.03698
C         61.17956        48.02583        -0.90869
C         62.28776        50.11104        -0.10946
C         61.06954        50.77405        -0.10311
C         62.30862        52.98944        -0.03300
C         61.05293        52.22074         0.31021
C         62.30406        54.35546         0.00521
C         61.03176        55.08749         0.35901
C         62.33536        57.28126        -0.29115
C         61.04844        56.60250         0.06647
C         62.34724        58.70101        -0.55325
C         61.08578        59.40379        -0.91813
C         62.33363        61.61377        -0.61066
C         61.08194        60.91683        -1.11842
C         62.34467        62.97076        -0.60257
C         61.07199        63.71870        -0.46690
C         62.35111        65.97764        -0.44841
C         61.06787        65.22458        -0.39008
C         62.42235        67.28648        -0.04499
C         64.10139        35.74726         2.40248
C         63.24121        35.15907         1.30874
C         63.93983        37.22478         2.45331
C         62.88717        37.91597         1.91249
C         64.81355        40.45559         2.10767
C         62.79122        39.36452         2.00783
C         64.59376        41.67674         1.37576
C         63.34558        42.28908         1.21771
C         64.71857        44.47079         0.93698
C         63.36115        43.75072         0.91073
C         64.73596        45.84681         0.32411
C         63.55844        46.52516         0.02398
C         64.76564        48.64708        -0.02960
C         63.55923        47.93099        -0.06400
C         64.77989        50.08762        -0.16555
C         63.53187        50.81555        -0.14706
C         64.76156        52.94144        -0.32417
C         63.54591        52.23955        -0.18127
C         64.79801        54.35151        -0.31024
C         63.58210        55.13384         0.12402
C         64.74554        57.24746        -0.78188
C         63.50482        56.55194        -0.40410
C         64.80763        58.69674        -0.61089
C         63.57398        59.38861        -0.53621
C         64.84813        61.53385        -0.92844
C         63.61637        60.87778        -0.28544
C         64.89175        63.01710        -0.62187
C         63.60761        63.73649        -0.79318
C         64.89482        65.97671        -0.67233
C         63.58668        65.24747        -0.80631
C         64.87979        67.37046        -0.18975
C         63.66319        67.97832         0.08276
C         66.79149        33.14475         2.42420
C         65.63016        33.87889         2.57520
C         66.73724        35.96757         1.91562
C         65.55666        35.26145         2.31052
C         66.87095        37.44497         1.82080
C         65.97566        38.31150         2.45013
C         67.33119        40.36509         1.97166
C         65.99346        39.72137         2.17268
C         67.13343        41.69832         1.27110
C         65.83467        42.17182         0.62914
C         67.07309        44.33661         0.19124
C         65.90301        43.67779         0.48021
C         67.18434        45.77142         0.11395
C         65.97671        46.52412         0.18905
C         67.24225        48.58507        -0.21993
C         65.99180        47.92506        -0.03073
C         67.24775        50.03043        -0.31093
C         66.00279        50.73962        -0.32722
C         67.25380        52.89956        -0.17326
C         66.02467        52.19991        -0.68071
C         67.24942        54.30127        -0.16509
C         66.03013        55.02073        -0.39648
C         67.32740        57.19287        -0.41842
C         66.09783        56.45423        -0.69271
C         67.32551        58.62410        -0.43210
C         66.08153        59.37383        -0.56468
C         67.32955        61.50331        -0.34627
C         66.11975        60.78575        -0.56920
C         67.31038        62.91876        -0.24754
C         66.08161        63.66867        -0.38722
C         67.32457        65.85758         0.13631
C         66.17402        65.15881        -0.44003
C         67.35198        67.26767         0.19481
C         66.14511        68.03500         0.01365
C         67.39433        70.08351         0.45260
C         66.21314        69.43958         0.13550
C         69.08964        31.61660         1.39665
C         69.12056        33.00595         1.56345
C         67.93545        33.77179         1.88383
C         68.94622        35.70723         0.74511
C         67.88674        35.17096         1.62880
C         68.94675        37.21550         0.38476
C         68.02177        38.07624         1.15010
C         69.53281        39.97176         0.61847
C         68.32223        39.43342         1.24625
C         69.95849        41.31426         0.76116
C         68.21587        42.47660         1.11477
C         69.63905        44.23532        -0.05697
C         68.31424        43.50607         0.02379
C         69.64221        45.63213        -0.27036
C         68.42453        46.40360        -0.18787
C         69.67499        48.57170        -0.60603
C         68.42388        47.83172        -0.35070
C         69.71735        50.01337        -0.26656
C         68.47519        50.72449        -0.26642
C         69.68075        52.83553         0.12555
C         68.49115        52.16907        -0.09191
C         69.61843        54.25866         0.61716
C         68.45668        55.03689         0.05347
C         69.80781        57.08923        -0.03291
C         68.49043        56.42625        -0.07982
C         69.81517        58.61705        -0.07426
C         68.52836        59.33852        -0.18520
C         69.75313        61.41849         0.28772
C         68.55506        60.75813        -0.10257
C         69.83752        62.88030         0.27866
C         68.53944        63.67015        -0.00997
C         69.77270        65.73002         0.72685
C         68.44028        65.01949         0.69373
C         69.82521        67.18318         0.55278
C         68.57295        67.96386         0.50710
C         69.81887        70.05980         1.10048
C         68.60055        69.36072         0.66297
C         69.79319        71.44077         1.39396
C         71.47505        31.56354         0.86025
C         70.23169        30.89580         1.04865
C         71.57936        32.91471         1.01325
C         70.41695        33.76583         1.43352
C         71.16137        35.50518        -0.28055
C         70.19788        34.98711         0.55632
C         71.12912        36.86083        -0.70150
C         70.17555        37.74952        -0.22285
C         71.41037        39.80705        -0.96507
C         70.37162        39.18160        -0.22464
C         71.60978        41.18291        -0.96304
C         70.83809        41.99639        -0.09896
C         72.09307        44.17416        -0.22169
C         70.84089        43.47016        -0.12126
C         72.14616        45.51514        -0.43355
C         70.90564        46.25129        -0.86510
C         72.16851        48.51714        -0.29655
C         70.97563        47.79206        -0.74761
C         72.14625        49.87294        -0.09118
C         70.94816        50.65920        -0.12464
C         72.07479        52.80457         0.77078
C         71.01925        52.18022        -0.11200
C         72.06400        54.14106         1.01514
C         70.94302        54.97211         0.63437
C         72.15809        57.13525         0.75297
C         70.98802        56.36317         0.50368
C         72.12972        58.52335         0.80836
C         70.97247        59.28398         0.53603
C         71.90772        61.38633         1.47655
C         70.88750        60.69244         0.78040
C         71.87862        62.77191         1.64543
C         70.89742        63.55737         1.03605
C         72.12119        65.71197         1.44259
C         70.92438        65.00883         1.02722
C         72.18574        67.06468         1.52034
C         71.12366        67.91308         0.96698
C         72.14676        70.02892         1.83973
C         71.02780        69.35190         1.32425
C         72.09568        71.39142         2.12182
C         70.91252        72.09921         1.89180
O         54.06793        59.02377         1.44491
O         43.85341        54.64764        -0.37944
O         60.63634        45.97187        -2.16619
O         69.40282        42.11873         1.77745
O         54.11424        61.25252        -1.42210
O         57.12343        49.02165         0.90804
O         60.42545        58.77312        -2.10609
O         69.55628        63.53599        -1.01974
O         63.49215        64.49910        -2.06369
O         60.94832        42.24188         2.11483
O         70.12904        57.81093        -1.26510
O         39.18275        50.60934         2.80461
O         63.73748        39.96566         2.83394
O         62.45108        44.53910         1.79371
O         65.43999        56.75849        -1.97241
O         57.23850        53.65497         1.32939
O         64.91207        37.84898         3.24247
O         60.22468        57.26736         1.11326
O         50.46854        55.13641        -2.38113
O         53.94956        42.93291        -3.28381
O         65.80793        65.71800        -1.76286
O         68.31568        36.22521        -0.47734
O         56.27803        60.29326         1.32847
O         53.41732        50.90549        -2.52528
O         49.69571        58.27609        -1.80402
O         70.31947        48.37945        -1.92734
O         46.63317        46.57097        -3.52672
O         61.05005        64.42127         0.85467
O         56.47355        47.54065        -2.50580
O         70.82148        67.63669        -0.43012
O         64.98434        44.70923         2.36352
H         64.12996        45.00158         2.75802
O         63.80933        61.02058         1.15521
H         63.03022        60.64212         1.61392
O         49.43932        52.80857        -2.92199
H         49.90589        53.50684        -3.43433
O         53.12995        54.85696         1.33426
H         53.80707        55.30871         1.88428
O         51.38159        48.21218        -3.74349
H         52.27643        47.91180        -4.01053
O         68.07529        64.67089         2.08180
H         67.94888        65.50610         2.57963
O         67.83918        40.58582         3.31701
H         68.64565        41.14583         3.22605
O         63.76885        55.31332         1.58494
H         62.87416        55.28398         2.00108
O         60.86730        54.93040         1.79173
H         60.27526        55.66785         2.08542
O         62.97032        45.11204        -1.72569
H         62.25574        45.15327        -2.40738
O         61.05254        52.15640         1.78660
H         60.91399        53.08253         2.10800
O         61.15248        61.16258        -2.55505
H         60.75037        60.37860        -2.99935
O         53.15112        51.95263         0.97226
H         53.05310        52.82714         1.42195
O         70.78814        45.94505        -2.29698
H         70.38295        46.74644        -2.71249
O         68.19757        42.74431        -1.23358
H         68.40296        43.36048        -1.96970
O         66.12431        52.24105        -2.15957
H         66.10419        53.18583        -2.42590
O         63.56313        35.25509         3.67488
H         63.97568        35.78840         4.38794
O         70.73571        34.31225         2.76815
H         70.84808        33.55012         3.37501
O         71.40642        52.55463        -1.48610
H         70.80770        52.08007        -2.10194
O         61.72972        48.32763         1.37897
H         62.14257        48.95663         2.00731
O         43.32867        51.20529         3.66080
H         43.49443        52.08035         4.07258
O         49.33338        52.16321         0.64769
H         48.75573        51.58882         1.19247
O         60.23958        54.48541        -1.79671
H         59.64227        53.90031        -2.31082
O         59.90939        39.31793         2.30323
H         59.88977        40.23680         2.65514
O         69.28178        54.12583         2.06645
H         69.07796        55.02384         2.40528
O         58.53049        56.54292        -2.17089
H         59.36754        56.10531        -2.45414
O         64.66253        61.41783        -2.36264
H         65.24452        62.06698        -2.81014
O         45.64998        50.96438        -2.31996
H         45.64195        50.10743        -2.79804
O         61.51781        48.44394        -2.24384
H         61.05544        47.83262        -2.86127
O         65.72347        41.57687        -0.69492
H         66.54709        41.83184        -1.18341
H         39.78054        47.66294         4.20925
H         38.54910        48.46348         6.17930
H         39.72575        52.53846         5.43899
H         38.51407        50.86986         6.78582
H         40.23021        47.26526         2.18235
H         40.21660        53.85281         3.75664
H         41.84855        46.39783         0.55528
H         41.89217        55.35830         2.75779
H         44.44743        45.31207        -2.86307
H         42.88660        45.93777        -1.03349
H         45.22619        57.90020         1.46126
H         43.42356        56.53863         2.27946
H         46.93489        44.02576        -3.72621
H         46.50652        59.01198         0.65911
H         48.91946        42.69603        -3.03685
H         48.46173        60.38316         0.39396
H         52.36115        40.49216        -1.67296
H         50.33546        41.76500        -2.02953
H         52.18843        62.70770         0.26664
H         50.11803        61.41327         0.25719
H         54.09938        39.51240        -1.74491
H         53.99192        63.73557         0.09391
H         56.13502        38.29872        -1.15105
H         56.14082        64.86288        -0.07055
H         59.85983        36.22618        -0.38591
H         57.87489        37.42110        -1.09645
H         59.79106        66.96829        -0.91495
H         57.69266        65.72855        -0.88812
H         61.60306        35.33440        -0.01403
H         61.50182        67.82064         0.22993
H         63.42562        34.11328         1.02069
H         63.63675        69.01269         0.45132
H         66.80349        32.07722         2.68087
H         64.71904        33.37651         2.93009
H         67.38409        71.17814         0.52346
H         65.31124        70.04238        -0.03780
H         68.13811        31.07676         1.50881
H         68.87826        72.02562         1.23478
H         72.36053        30.97140         0.58674
H         70.17292        29.80834         0.90885
H         72.55815        33.40338         0.90211
H         72.06851        34.92494        -0.50106
H         72.00942        37.24224        -1.23710
H         72.03548        39.19094        -1.62561
H         72.34914        41.63542        -1.63817
H         73.02191        43.60611        -0.06261
H         73.12298        46.01464        -0.49978
H         73.10156        47.96642        -0.11201
H         73.09157        50.37458         0.16309
H         72.93466        52.20073         1.09625
H         72.93026        54.60347         1.51443
H         73.09230        56.61946         1.01424
H         73.04763        59.04164         1.11874
H         72.74095        60.82390         1.91738
H         72.67819        63.24151         2.23443
H         72.97671        65.12195         1.79896
H         73.06097        67.53394         1.99103
H         73.08885        69.48834         2.00300
H         72.98423        71.90612         2.51177
H         70.86270        73.17556         2.10619
