         236
 CSIRO Nanostructure Databank - Neutral Graphene Oxide Data Set
C        -10.94791         0.40294        -1.04144
C         -9.59899         1.07044        -1.12549
C         -8.57738         0.50216        -0.16815
C         -7.35383         1.26380         0.07641
C         -6.29224         0.68929         0.76207
C         -5.04791         1.46306         0.96323
C         -3.80222         0.74064         1.40897
C         -2.47770         1.36376         1.09229
C         -1.26868         0.72417         1.71712
C          0.02035         1.48953         1.78368
C          1.34300         0.71826         1.89160
C          2.56402         1.49182         1.40776
C          3.76090         0.79049         1.13698
C          4.99588         1.49162         0.96186
C          6.21550         0.78445         0.70503
C          7.43440         1.45420         0.64395
C          8.70779         0.65316         0.47908
C          9.94779         1.46869         0.19710
C         11.12068         0.68215        -0.11555
C         -9.66230         2.56335        -1.07755
C         -8.50456         3.30308        -0.83234
C         -7.30558         2.66281        -0.32292
C         -6.13426         3.42974        -0.15728
C         -4.92877         2.81556         0.35441
C         -3.73258         3.51188         0.39183
C         -2.45432         2.78978         0.67036
C         -1.23611         3.58515         1.03258
C          0.05728         2.89117         1.29506
C          1.25953         3.57162         1.23233
C          2.52614         2.89691         1.37192
C          3.81551         3.66956         1.57404
C          5.05285         2.91186         1.11520
C          6.26964         3.59122         0.95851
C          7.47913         2.87593         0.69321
C          8.70549         3.57113         0.44280
C          9.92423         2.83973         0.22299
C         -8.48647         4.70094        -1.09571
C         -7.30737         5.45537        -0.98051
C         -6.10524         4.81570        -0.52188
C         -4.90482         5.57490        -0.41523
C         -3.67618         4.91157         0.01085
C         -2.47480         5.60385         0.03215
C         -1.26101         5.03291         0.66535
C          0.03510         5.84673         0.68426
C          1.29107         4.95255         0.66736
C          2.59293         5.69957         0.54987
C          3.81214         5.10004         1.08617
C          5.02632         5.87107         1.16192
C          6.35687         5.06109         1.07812
C          7.54079         5.73463         0.53023
C          8.68123         4.97739         0.27440
C         -7.27911         6.83392        -1.34004
C         -6.10134         7.57155        -1.25154
C         -4.91745         6.94439        -0.75904
C         -3.69838         7.76101        -0.64475
C         -2.43374         7.04638        -0.28065
C         -1.15738         7.59598        -0.83163
C          0.11526         6.93605        -0.39213
C          1.38327         7.72126        -0.43629
C          2.52515         7.23312         0.47135
C          3.85315         7.80615        -0.03653
C          5.05366         7.36983         0.83477
C          6.32035         7.85408         0.15022
C          7.47748         7.11890         0.14434
C         -6.04726         8.96879        -1.65512
C         -4.88764         9.67951        -1.69647
C         -3.61841         9.08689        -1.32073
C         -2.42004         9.72479        -1.48997
C         -1.12564         9.01075        -1.35235
C          0.15796         9.72042        -1.33990
C          1.36787         9.14334        -0.89652
C          2.57979         9.83554        -0.91938
C          3.78449         9.36268        -0.14097
C          5.11414         9.86204        -0.65704
C          6.26244         9.16796        -0.46858
C        -11.14546        -0.77166        -0.43599
C        -10.07668        -1.46067         0.36739
C         -8.73933        -0.76179         0.31230
C         -7.63921        -1.46904         1.00994
C         -6.37821        -0.69521         1.29539
C         -5.11875        -1.46979         1.61968
C         -3.80252        -0.74688         1.67125
C         -2.50289        -1.48538         1.53771
C         -1.25239        -0.76500         1.62237
C         -0.02784        -1.38964         1.39169
C          1.22965        -0.67408         1.29605
C          2.37901        -1.32571         0.89601
C          3.75430        -0.72829         1.14981
C          4.86082        -1.33018         0.28890
C          6.22853        -0.71665         0.49284
C          7.20623        -1.06773        -0.62938
C          8.53894        -0.31983        -0.69381
C          9.74023        -1.23493        -0.83038
C         11.02284        -0.61749        -0.52898
C         -9.95274        -2.93023         0.08231
C         -8.77339        -3.63028         0.32751
C         -7.57118        -2.94202         0.78290
C         -6.36885        -3.61946         0.85401
C         -5.12587        -3.01018         1.49514
C         -3.82558        -3.49064         0.83631
C         -2.54496        -2.84755         1.27799
C         -1.31337        -3.63685         1.30251
C          0.02511        -2.85620         1.33987
C          1.21872        -3.48258         0.76855
C          2.31581        -2.70702         0.47895
C          3.47527        -3.28792        -0.23758
C          4.73416        -2.51937        -0.35095
C          5.80699        -3.20152        -1.20998
C          7.09131        -2.39078        -1.30292
C          8.32992        -3.08884        -1.86757
C          9.63068        -2.46531        -1.39182
C         -8.73187        -5.04467         0.13815
C         -7.51716        -5.74328         0.18166
C         -6.31526        -5.00462         0.45965
C         -5.08548        -5.64416         0.21364
C         -3.81919        -4.88019         0.29826
C         -2.56570        -5.69556         0.32217
C         -1.31300        -5.05259         0.77959
C         -0.05192        -5.60571         0.19581
C          1.23649        -4.96554         0.62195
C          2.47896        -5.63229         0.17185
C          3.59582        -4.77717        -0.31726
C          4.91657        -5.41185        -0.50312
C          5.99878        -4.66619        -0.84825
C          7.27153        -5.31943        -1.15754
C          8.34341        -4.58219        -1.57342
C         -7.42587        -7.15602        -0.04428
C         -6.20172        -7.79438        -0.25166
C         -5.03184        -6.95493        -0.28853
C         -3.77784        -7.42241        -0.83529
C         -2.55358        -6.91059        -0.52893
C         -1.30721        -7.66771        -0.97754
C         -0.04001        -6.90962        -0.55654
C          1.24986        -7.64875        -0.64915
C          2.42853        -6.97851        -0.43926
C          3.71422        -7.57934        -0.78485
C          4.97107        -6.90254        -0.25656
C          6.22678        -7.54681        -0.79057
C          7.31233        -6.78299        -1.11224
C         -6.12752        -9.25778        -0.23183
C         -5.02499       -10.06757        -0.28005
C         -3.71448        -9.59644        -0.70390
C         -2.45847        -9.92263        -0.26136
C         -1.25232        -9.15294        -0.57273
C         -0.02853        -9.77264        -0.56556
C          1.24760        -9.09462        -0.77697
C          2.44822        -9.78213        -0.85026
C          3.72969        -9.08696        -1.02709
C          5.05615        -9.73186        -0.85947
C          6.20538        -9.00755        -0.82836
O          1.03492         6.78661        -1.50559
O         -0.53258        -3.51508         2.52149
O         -3.82757        -3.70625        -0.61456
O          4.93843        -7.11829         1.18453
H          5.72926        -6.69347         1.57745
O          3.76633        -8.10005        -2.13128
O         -2.23197         1.70227        -0.31242
O          3.09894        -3.99555        -1.47873
O          2.31014         7.68789         1.81188
H          2.53667         8.65242         1.84517
O         -3.12603         7.85621         0.72560
O         -0.83197         1.30447         2.98791
O         -2.02913        -5.95555         1.68333
O          8.53162         0.51899        -1.86845
H          8.02719         0.02604        -2.55980
O          5.35557        -3.23339        -2.59544
H          4.43479        -3.59933        -2.59562
O         -7.38501        -0.93955         2.35604
O          8.28154        -2.97077        -3.31538
H          7.33200        -3.02935        -3.56852
O          6.71989        -1.37156         1.69385
H          5.99938        -1.30691         2.36614
O         -1.57895         4.58606         2.05491
O          2.04776         4.91738        -0.57865
O          4.06444        -1.10844         2.53813
H          3.39451        -0.65722         3.10848
O          4.10629         7.26102        -1.34339
H          3.25308         7.12979        -1.81247
O          5.86018         5.59400         2.36440
O          6.67829        -1.14487        -1.97970
O         -4.53286        -1.07268         2.90132
O         -9.06291         0.74427        -2.46737
H         -9.65579         1.15907        -3.12935
O         -1.17707         7.79345        -2.26861
O          3.94525         3.76156         3.04592
H          4.71110         4.36401         3.21976
O          8.96347        -0.11302         1.67666
H          8.88937         0.48344         2.44908
O         -5.10310        -3.56148         2.82998
H         -4.81878        -2.83966         3.44104
O          1.62537         0.49104         3.30514
H          0.76942         0.60848         3.78562
O         -3.82751        -8.55612        -1.65278
O         -1.27975        -7.67806        -2.42300
H         -1.05922        -6.76614        -2.71492
O          3.58928         9.96676         1.17964
H          4.36239         9.70743         1.73812
O          0.01885         6.57839         1.92403
H         -0.43918         6.01980         2.59470
O          5.01470         8.04278         2.11915
H          5.53834         7.48561         2.74163
O         -0.04796        -5.61795        -1.27919
O        -10.50809        -1.36277         1.77084
H         -9.72253        -1.52092         2.33915
O         -4.57646         1.48551         2.37810
O          2.11086        -5.62293         1.59834
H         11.93680        -1.19271        -0.74391
H         12.11049         1.15881        -0.04034
H         10.83936         3.41138         0.00357
H          9.58688         5.48477        -0.09024
H          8.38035         7.55091        -0.31602
H          7.21133         9.58122        -0.84680
H          5.14689        10.84858        -1.14438
H          2.59551        10.86990        -1.29771
H          0.16164        10.78329        -1.62626
H         -2.40226        10.74772        -1.89786
H         -4.89025        10.71770        -2.06046
H         -6.98770         9.44086        -1.97587
H         -8.20135         7.31145        -1.70250
H         -9.40561         5.18581        -1.45648
H        -10.55576         3.07486        -1.46868
H        -11.77402         0.88517        -1.58960
H        -12.14279        -1.23811        -0.43833
H        -10.85534        -3.48998        -0.20618
H         -9.66201        -5.57434        -0.11463
H         -8.35616        -7.74382        -0.06903
H         -7.08183        -9.74528         0.02962
H         -5.14682       -11.12908        -0.01118
H         -2.33905       -10.79037         0.40649
H          0.01275       -10.85938        -0.38873
H          2.45528       -10.87723        -0.73940
H          5.10256       -10.83149        -0.84409
H          7.17318        -9.53333        -0.82478
H          8.23973        -7.27047        -1.45234
H          9.26916        -5.11160        -1.85099
H         10.54386        -3.05891        -1.56411
