         429
 CSIRO Nanostructure Databank - Neutral Graphene Oxide Data Set
C          1.25464         2.05710         1.03391
C          1.17839         3.35749         0.63924
C          2.51606         1.39760         1.18434
C          2.43489         4.13527         0.32401
C          1.12498         6.35653         0.32788
C          1.10134         7.80808         0.20593
C          2.28283         5.64738         0.40290
C          2.22389         8.53206        -0.05863
C          1.04580        10.77720        -0.13561
C          1.08491        12.09475         0.15590
C          2.26225         9.98755        -0.53660
C          2.32430        12.84528         0.21020
C          1.15890        15.07194         0.25736
C          1.21728        16.45063         0.29818
C          2.33759        14.27549         0.35862
C          2.44607        17.12424         0.54496
C          2.54586        18.56817         0.55035
C          3.70770         2.11701         1.13602
C          3.62086         3.63029         1.19426
C          4.95853         1.47683         1.10692
C          4.92494         4.31512         0.83684
C          3.54462         6.43021         0.44715
C          3.49900         7.78887        -0.17332
C          4.87287         5.77917         0.67437
C          4.78877         8.53233        -0.31132
C          3.56714        10.68903        -0.15612
C          3.54429        12.13457         0.09688
C          4.75207         9.99902        -0.15214
C          4.76923        12.83428         0.17235
C          3.57967        14.95239         0.57136
C          3.60895        16.35883         0.72659
C          4.81532        14.21423         0.45632
C          4.82711        17.04013         1.30014
C          3.74633        19.21625         0.67455
C          4.97277        18.50401         0.92164
C          6.17068         2.18829         0.94308
C          6.13648         3.64484         0.79902
C          7.39671         1.51613         0.88324
C          7.38370         4.34536         0.60198
C          6.10830         6.51370         0.31630
C          6.07601         7.83270        -0.04101
C          7.41829         5.85458         0.66029
C          7.29927         8.57854        -0.29252
C          6.06457        10.65992         0.24792
C          6.01890        12.10653        -0.15938
C          7.31247         9.95425        -0.26138
C          7.29201        12.84848        -0.36131
C          6.05517        14.91277         0.46243
C          6.11562        16.24796         1.07775
C          7.24976        14.32551        -0.11545
C          7.42413        16.98049         1.13723
C          6.19268        19.15021         1.00743
C          7.44657        18.46363         1.17734
C          8.62078         2.20701         0.67475
C          8.59381         3.65481         0.53005
C          9.83810         1.52669         0.62579
C          9.83216         4.35015         0.28191
C          8.59438         6.43955        -0.07083
C          8.48934         7.77677        -0.75141
C          9.79962         5.75042        -0.07474
C          9.78436         8.54451        -0.73327
C          8.54735        10.69770        -0.46051
C          8.58459        12.10948        -0.35010
C          9.77385         9.98102        -0.72098
C          9.81763        12.80838        -0.30413
C          8.63420        15.03320         0.11670
C          8.66437        16.31035         0.75637
C          9.86647        14.21469         0.03476
C          9.88551        16.87888         1.41258
C          8.67726        19.10002         1.18614
C          9.93309        18.39274         1.21704
C         11.08330         2.20368         0.43912
C         11.06026         3.65293         0.23855
C         12.26548         1.47688         0.36930
C         12.25073         4.34505        -0.10419
C         11.01898         6.41924        -0.47701
C         10.97934         7.82464        -0.75887
C         12.24772         5.72190        -0.46725
C         12.21412         8.49087        -1.20273
C         10.99088        10.69643        -0.83316
C         11.05169        12.08314        -0.48738
C         12.19794        10.02147        -1.33287
C         12.30041        12.74421        -0.40735
C         11.06823        14.84613         0.28387
C         11.16192        16.14619         0.99174
C         12.30675        14.19193        -0.16253
C         12.45477        16.92161         0.95187
C         11.14183        19.05907         1.16802
C         12.41933        18.39774         1.06738
C         13.56388         2.13449         0.25989
C         13.53036         3.62944        -0.01256
C         14.79730         1.37584        -0.04050
C         14.69949         4.23544        -0.70851
C         13.49655         6.43406        -0.76358
C         13.49258         7.77826        -1.09052
C         14.75089         5.70569        -0.79419
C         14.74021         8.48531        -1.59430
C         13.50187        10.79982        -1.52261
C         13.54535        12.12513        -0.78302
C         14.76423         9.97802        -1.25905
C         14.75683        12.78109        -0.68417
C         13.61212        14.91852        -0.08973
C         13.66676        16.30449         0.40044
C         14.86607        14.08716         0.06999
C         14.86536        16.99775         0.36504
C         13.60864        19.08521         0.92879
C         14.86465        18.42566         0.65763
C         15.97464         2.00350        -0.37652
C         15.96188         3.43315        -0.79774
C         17.23431         1.32060        -0.43820
C         17.22829         4.18325        -0.81573
C         15.97220         6.34306        -0.98308
C         16.02009         7.77304        -1.19954
C         17.21849         5.59714        -0.89275
C         17.22249         8.44491        -1.17711
C         15.94401        10.64052        -1.16767
C         15.99373        12.15981        -1.28799
C         17.22766         9.91986        -1.36212
C         17.29332        12.80736        -0.81893
C         16.10705        14.89962        -0.23256
C         16.08758        16.32403         0.00039
C         17.27668        14.22840        -0.54310
C         17.30193        17.06226        -0.00730
C         16.05562        19.12965         0.59417
C         17.29961        18.47662         0.30792
C         18.43584         1.99770        -0.63360
C         18.43964         3.45808        -0.76080
C         19.68823         1.30516        -0.58479
C         19.66068         4.15855        -0.74884
C         18.44690         6.30264        -0.77843
C         18.47184         7.75412        -0.89455
C         19.65027         5.56231        -0.64822
C         19.67485         8.44775        -0.82672
C         18.51093        10.69014        -1.26979
C         18.49788        12.12473        -0.86907
C         19.77726         9.89750        -1.11213
C         19.75131        12.77565        -0.47157
C         18.56060        14.99219        -0.76573
C         18.53499        16.39911        -0.22030
C         19.76953        14.21568        -0.30797
C         19.74914        17.08172        -0.03026
C         18.50534        19.17921         0.33167
C         19.75337        18.50959         0.18746
C         20.91974         1.95414        -0.66723
C         20.94085         3.41950        -1.05347
C         22.15587         1.27636        -0.55360
C         22.19275         4.12180        -0.62209
C         20.86735         6.26857        -0.20974
C         20.87851         7.77013        -0.31211
C         22.17927         5.50809        -0.03622
C         22.17662         8.47494        -0.23381
C         21.02334        10.62495        -0.69499
C         20.93230        12.05288        -0.33838
C         22.20965         9.85960        -0.23354
C         22.12862        12.66571         0.26114
C         20.92007        14.90323         0.03611
C         20.98141        16.35290         0.03543
C         22.10235        14.16390         0.50098
C         22.20128        17.03901         0.20434
C         20.97968        19.18804         0.24976
C         22.21370        18.48573         0.21586
C         23.39056         1.95957        -0.61625
C         23.38785         3.42143        -0.62320
C         24.63193         1.29483        -0.50540
C         24.63779         4.13045        -0.58559
C         23.38491         6.32163        -0.43323
C         23.40900         7.70020        -0.26764
C         24.60883         5.59987        -0.91623
C         24.65943         8.40181        -0.24751
C         23.42517        10.57670        -0.00117
C         23.43868        11.96249         0.16747
C         24.68874         9.80720         0.27066
C         24.68394        12.66617         0.26929
C         23.40084        14.89442         0.66446
C         23.44448        16.33846         0.37305
C         24.70492        14.11576         0.57935
C         24.67199        17.00923         0.33430
C         23.44813        19.15693         0.23676
C         24.68003        18.45434         0.22946
C         25.85540         1.99630        -0.45109
C         25.85096         3.44667        -0.54753
C         27.09597         1.32563        -0.32205
C         27.10536         4.15928        -0.60858
C         25.89579         6.31854        -0.63529
C         25.88314         7.72105        -0.43167
C         27.11670         5.60122        -0.68722
C         27.12140         8.45850        -0.44633
C         25.91330        10.57171        -0.15775
C         25.89867        11.99196        -0.02015
C         27.09599         9.87218        -0.42697
C         27.16627        12.70237        -0.06939
C         25.93396        14.88815         0.34636
C         25.93232        16.28128         0.32922
C         27.19003        14.12435         0.31531
C         27.17594        17.01524         0.15279
C         25.90204        19.14109         0.14516
C         27.14526        18.45637         0.07259
C         28.31749         2.02271        -0.30792
C         28.32100         3.45920        -0.48662
C         29.55613         1.35356        -0.10014
C         29.56623         4.16605        -0.51427
C         28.34639         6.30648        -0.74725
C         28.36128         7.75370        -0.68163
C         29.58375         5.58649        -0.71773
C         29.56085         8.44463        -0.78088
C         28.33931        10.62198        -0.84625
C         28.35285        12.06409        -0.38818
C         29.61286         9.90126        -0.38884
C         29.60723        12.77624        -0.53196
C         28.48460        14.88787         0.12708
C         28.40862        16.35356        -0.00033
C         29.64687        14.16724        -0.40599
C         29.61686        17.06016        -0.24795
C         28.34485        19.16639        -0.10561
C         29.58663        18.50242        -0.27680
C         30.77115         2.04509        -0.08199
C         30.78505         3.46898        -0.33006
C         32.00617         1.39235         0.23823
C         32.01762         4.17915        -0.35078
C         30.81047         6.27985        -0.83016
C         30.74864         7.71440        -1.33784
C         32.03111         5.58686        -0.63063
C         32.05788         8.48596        -1.22202
C         30.84160        10.66137        -0.85587
C         30.81833        12.04448        -0.86949
C         32.07050         9.95096        -1.05463
C         32.03360        12.81355        -1.35445
C         30.87842        14.90674        -0.57566
C         30.85226        16.36910        -0.44982
C         32.05181        14.23458        -0.83907
C         32.02799        17.09615        -0.71660
C         30.77503        19.21968        -0.50042
C         32.00477        18.55128        -0.76306
C         33.20680         2.08305         0.25977
C         33.24113         3.48557        -0.10083
C         34.42301         1.48856         0.76553
C         34.46855         4.17014        -0.13026
C         33.28205         6.27667        -0.59050
C         33.32655         7.73698        -0.86011
C         34.46646         5.57239        -0.35525
C         34.47712         8.54567        -0.43902
C         33.30848        10.63244        -1.06926
C         33.36069        12.07561        -1.17876
C         34.51104         9.89621        -0.75605
C         34.55472        12.78602        -1.32799
C         33.35985        14.92904        -0.58756
C         33.27983        16.41421        -0.90209
C         34.52808        14.23889        -1.25934
C         34.42560        17.13411        -1.17793
C         33.15255        19.27140        -1.07951
C         34.40571        18.59336        -1.53103
C         35.65671         2.09056         0.70953
C         35.75654         3.41404        -0.00562
C         36.73732         1.47791         1.49533
C         37.05292         4.19302        -0.20438
C         35.70523         6.32727        -0.03907
C         35.65877         7.81190         0.05299
C         37.05394         5.70987        -0.36845
C         36.94024         8.55825         0.19088
C         35.81348        10.59929        -0.90589
C         35.86739        12.05100        -1.36678
C         36.99279        10.00028        -0.20029
C         37.23573        12.66379        -1.23239
C         35.57994        15.05276        -1.59218
C         35.69728        16.44884        -1.24464
C         37.53715        14.03811        -1.48431
C         36.92120        17.08946        -1.02772
C         35.66196        19.24233        -1.02633
C         36.81981        18.53359        -0.77321
C         38.06545         1.60231         1.23361
C         38.31542         3.60300         0.27569
C         39.25529         1.26201         2.02193
C         39.27965         4.27229         0.96878
C         38.19717         6.42241         0.34513
C         38.20661         7.82471         0.34147
C         39.31160         5.73053         0.87633
C         39.40418         8.56014         0.58296
C         38.32961        10.58033        -0.36313
C         38.34347        11.81595        -1.01847
C         39.47251         9.96920         0.25752
C         39.92936        12.96063        -0.25636
C         38.44060        14.88847        -0.81319
C         38.24192        16.38972        -0.79619
C         39.54413        14.31565        -0.06544
C         39.22731        17.17328         0.12386
C         37.87548        19.24068        -0.09938
C         38.93313        18.58536         0.48081
C         40.26667         2.14299         2.17874
C         40.21250         3.65085         1.99803
C         41.56198         4.31995         1.91649
C         40.48636         6.43355         1.24286
C         40.55596         7.85563         1.04944
C         41.64478         5.64347         1.64383
C         41.72069         8.62403         1.34333
C         40.63647        10.71443         0.63575
C         40.65978        12.18225         0.66380
C         41.72823         9.99753         1.19553
C         41.31364        12.91193         1.68925
C         40.29818        15.02505         0.92269
C         40.15019        16.45512         1.03895
C         41.18499        14.29141         1.75672
C         40.84667        17.17886         1.99778
C         39.78221        19.27274         1.40792
C         40.71699        18.58517         2.13984
O         24.09843        14.49464         1.87750
O         39.57276        12.33093        -1.46102
O          4.13342         6.46725         1.80669
O         12.07150        16.11387         2.15607
O         35.51780         6.95925         1.26929
O         11.97659         9.16833        -2.49464
O         13.82005         3.14995         1.33980
O         36.46600         3.45200        -1.31605
O         32.97937         8.04333        -2.27694
O          7.89154        15.09379        -1.17282
O         15.08847         3.60754        -1.98236
O         20.57784         7.07759         0.98913
O         35.98089        10.92750        -2.32059
O         38.42647         2.23521         0.02989
O         36.74535         9.62806         1.19499
O          6.89046        16.25501         2.34761
O         21.83936        13.23391         1.59369
O          4.11620         7.95311        -1.50468
O         12.93750        14.87319        -1.38395
O         20.76812        10.29472        -2.12352
O         36.63380        14.61460        -2.38835
O          6.46714        12.40819        -1.51628
O         39.43438        17.04767        -1.32305
O         17.89353        10.42170        -2.58956
O         28.07344        14.40373         1.46319
O         21.00345         3.41203        -2.53116
H         20.25904         2.85845        -2.85168
O          2.80112         3.85456        -1.05876
H          2.04405         4.09454        -1.63283
O          4.55394        17.07066         2.73416
H          5.42616        16.93733         3.18152
O          8.23294         7.47237        -2.17782
H          8.36636         8.30157        -2.68557
O         24.49667         5.64270        -2.40356
H         25.29820         5.20921        -2.76899
O         22.35764         5.28104         1.40328
H         21.90446         6.03347         1.85665
O         24.77610         9.68032         1.74713
H         24.77736        10.59087         2.11489
O         28.36680        10.63014        -2.30086
H         27.53165        11.02962        -2.62117
O         14.66313         8.43068        -3.04691
H         13.84873         8.92921        -3.30743
O          7.64175         6.19040         2.08898
H          8.41328         5.66644         2.39482
O         33.60312        14.81770         0.86189
H         32.84399        15.23777         1.32027
O         31.85588        12.95226        -2.81200
H         31.79868        12.04736        -3.18738
O          2.23195         9.89767        -1.99193
H          2.96213         9.28317        -2.25181
O          9.70643        16.68059         2.84428
H         10.61122        16.58116         3.22538
O         37.26834         5.97571        -1.78286
H         36.94806         5.18677        -2.27814
O         13.53918        11.11250        -2.93988
H         14.34384        11.67338        -3.09935
O         30.47846         7.58502        -2.77458
H         31.35743         7.47244        -3.20712
O         39.62848         4.07861         3.28585
H         39.68519         5.05826         3.31841
O         14.92002        13.76640         1.49875
H         15.80901        13.40486         1.69829
O         34.43609        18.68146        -3.01184
H         35.25859        18.23557        -3.30844
O         18.69854        15.12595        -2.22790
H         17.84899        15.47180        -2.57538
O         29.64827         9.91629         1.06776
H         29.55715        10.84794         1.36263
O          3.34109         3.96169         2.57773
H          3.52535         4.92845         2.68648
O         15.95840        12.41337        -2.73687
H         16.69193        11.86719        -3.11962
O          6.13640        10.65274         1.70375
H          6.17154         9.72013         2.00573
H          0.33359         1.47347         1.17993
H          0.19676         3.81024         0.43444
H          2.54004         0.30243         1.28588
H          0.15169         5.84405         0.32935
H          0.11672         8.29456         0.25245
H          0.07089        10.27109        -0.18800
H          0.14303        12.61733         0.37728
H          0.18774        14.58725         0.08754
H          0.29999        17.04215         0.16316
H          1.62839        19.15066         0.37817
H          4.99420         0.37655         1.14319
H          3.78866        20.31202         0.57774
H          7.41670         0.42188         0.99842
H          6.22310        20.24447         0.87892
H          9.84810         0.43367         0.75211
H          8.71069        20.20053         1.13781
H         12.22597         0.37724         0.37846
H         11.14042        20.16029         1.12695
H         14.79114         0.29064         0.14516
H         13.60834        20.18362         1.00201
H         17.25402         0.23655        -0.24882
H         16.06361        20.20980         0.80400
H         19.66916         0.21197        -0.45274
H         18.49875        20.26211         0.52592
H         22.15292         0.19598        -0.34240
H         20.99042        20.28380         0.34704
H         24.64788         0.19509        -0.46622
H         23.46316        20.25707         0.23086
H         27.10266         0.22982        -0.22126
H         25.89723        20.23968         0.08350
H         29.55002         0.26763         0.07754
H         28.31736        20.26548        -0.14816
H         31.98609         0.32595         0.50867
H         30.74657        20.31901        -0.52895
H         34.33488         0.51284         1.26796
H         33.11176        20.37084        -1.10774
H         36.42287         0.89036         2.37130
H         35.65412        20.32675        -0.83660
H         39.35859         0.24138         2.42583
H         37.72100        20.30914         0.11463
H         41.14834         1.80200         2.74729
H         42.46541         3.75217         2.18535
H         42.62819         6.13477         1.67287
H         42.62265         8.12763         1.72644
H         42.63367        10.55380         1.47753
H         41.93143        12.38898         2.43231
H         41.75588        14.81838         2.53188
H         41.54087        16.66571         2.67583
H         39.62757        20.35047         1.56100
H         41.34112        19.10696         2.87779
