         252
 CSIRO Nanostructure Databank - Neutral Graphene Oxide Data Set
C         30.51987        32.63042         0.59385
C         30.56357        33.58834        -0.21539
C         30.53363        35.87787        -2.37031
C         30.68760        37.09671        -2.23890
C         30.44587        40.13135        -1.10883
C         30.23636        41.22885        -0.57085
C         32.68831        29.70337         1.15839
C         31.57002        30.29269         1.14375
C         32.74681        32.03797        -0.23560
C         31.26405        31.37833         0.16581
C         32.75307        33.13322        -1.04144
C         31.46482        33.87399        -1.28468
C         33.30251        36.10206        -2.49360
C         31.09530        34.55885        -2.44325
C         33.00910        37.47702        -1.98327
C         31.72778        38.05710        -1.90985
C         32.79355        40.06157        -0.92235
C         31.62975        39.36583        -1.39923
C         32.65753        41.53184        -0.49415
C         31.29075        41.84555         0.31844
C         32.48558        43.84787         0.86980
C         31.40174        43.33803         0.54256
C         35.39916        29.26614         2.89236
C         35.23473        29.38678         1.35264
C         34.00177        30.09096         0.92022
C         35.31405        32.08554         0.00443
C         33.97114        31.57748         0.56595
C         35.32167        33.27634        -0.87758
C         34.05672        33.76790        -1.57374
C         35.41519        35.97369        -1.46538
C         34.03615        35.30207        -1.42075
C         35.40525        37.34685        -1.45497
C         34.14900        38.10954        -1.46608
C         35.27764        40.01342        -0.30738
C         34.04770        39.42564        -0.96308
C         35.20750        41.52304        -0.15920
C         33.88804        42.11450         0.21107
C         35.04545        43.98058         1.38949
C         33.84724        43.38231         0.74917
C         35.20112        45.41136         1.70367
C         37.75547        28.77214         2.64138
C         36.48595        28.90575         3.36428
C         37.75682        29.72118         1.46320
C         36.55578        30.10425         0.94884
C         37.78209        31.65875        -0.67364
C         36.43357        31.04931        -0.21856
C         37.83076        33.00460        -1.40703
C         36.60314        33.83670        -1.42764
C         37.93331        35.95357        -1.86080
C         36.64690        35.20579        -1.53735
C         37.93877        37.39807        -1.39995
C         36.65838        38.11803        -1.44842
C         37.86008        40.13503        -0.48679
C         36.58569        39.53610        -0.93163
C         37.82232        41.57591        -0.11573
C         36.48672        42.22107         0.18124
C         37.75824        43.94711         1.72898
C         36.42775        43.33445         1.18560
C         37.66907        45.46633         2.01284
C         36.33707        45.83269         2.08022
C         40.41859        27.04760         4.65591
C         39.34037        27.65334         4.42887
C         40.27935        28.47508         2.31626
C         39.02120        28.14606         3.07079
C         40.28656        29.45720         1.33272
C         39.04652        30.14151         0.89238
C         40.30500        31.52995        -0.77012
C         39.04372        31.10146        -0.10385
C         40.41409        32.88810        -1.46620
C         39.15295        33.71919        -1.72246
C         40.36429        35.87630        -1.24552
C         39.18647        35.20112        -1.43205
C         40.38171        37.33965        -1.07585
C         39.10721        38.07414        -1.10744
C         40.32619        40.25000        -0.58048
C         39.05440        39.48203        -0.69170
C         40.36372        41.56035         0.11323
C         39.08775        42.30234         0.22023
C         40.33208        44.24241         1.44109
C         39.04181        43.62748         0.94885
C         40.25330        45.47091         2.37007
C         38.86593        46.12313         2.53223
C         39.92134        48.34274         2.04785
C         39.03794        47.57518         2.45624
C         42.90230        26.41912         4.10526
C         41.61735        26.92305         3.94500
C         42.80218        28.04643         1.91288
C         41.49704        27.67921         2.61884
C         42.74508        29.18303         0.97653
C         41.55059        29.80280         0.68903
C         42.87161        31.58411        -0.54826
C         41.57607        30.87354        -0.34050
C         42.83422        32.99076        -0.91174
C         41.65729        33.66456        -1.10480
C         42.88511        35.82384        -0.81595
C         41.69109        35.14596        -1.45895
C         42.79722        37.26184        -0.47637
C         41.56081        38.00208        -0.78823
C         42.86924        40.18080        -0.27046
C         41.62873        39.47925        -0.69069
C         42.81167        41.48807         0.18069
C         41.55771        42.17324         0.43955
C         42.76968        43.71428         1.84472
C         41.58941        43.42506         1.22499
C         42.76803        45.85904         2.38207
C         41.41638        46.50236         2.50859
C         42.55493        48.38651         1.44515
C         41.19381        47.75462         1.45304
C         43.94360        26.46946         3.37653
C         45.28762        27.77139         1.59437
C         44.16074        27.74937         2.58485
C         45.28499        28.83160         0.50357
C         43.98786        29.55377         0.23391
C         45.36175        31.46285        -0.88732
C         44.04548        30.90862        -0.35467
C         45.39071        32.96240        -0.72843
C         44.14372        33.71595        -1.14914
C         45.31123        35.84490        -0.31895
C         44.05046        35.14018        -0.64654
C         45.34665        37.29827        -0.53814
C         44.11441        38.04792        -0.36452
C         45.35771        40.21200        -0.54220
C         44.14128        39.52333        -0.45215
C         45.37757        41.67651        -0.16916
C         44.08071        42.23638         0.34664
C         45.24898        44.22559         1.43146
C         44.13545        43.17264         1.54161
C         45.12709        45.59195         1.62896
C         43.89845        46.36985         1.80597
C         43.59628        47.71079         1.32745
C         47.68344        27.62940         1.18595
C         46.55103        27.28920         1.70291
C         47.84732        28.87202         0.56401
C         46.58899        29.51581         0.18912
C         47.86707        31.51678        -0.47506
C         46.61404        30.79214        -0.34425
C         47.85119        32.90362        -0.59793
C         46.58985        33.61407        -0.60950
C         47.78577        35.82233        -0.95027
C         46.60433        35.08937        -0.39843
C         47.78265        37.29151        -0.88439
C         46.56381        37.98387        -0.70946
C         47.80832        40.03484        -1.00903
C         46.56676        39.43695        -0.74087
C         47.80393        42.03780        -0.23405
C         46.62420        42.32138         0.38000
C         47.84127        44.49995         0.73028
C         46.63695        43.54094         1.32019
C         47.56458        45.78248         1.45561
C         46.41601        46.25063         1.52246
C         50.38766        28.96457         0.37765
C         49.09046        29.48649         0.21956
C         50.37326        31.45359        -0.62976
C         49.13972        30.81599        -0.31419
C         50.28273        32.84900        -1.26745
C         49.16854        33.67236        -0.58716
C         50.30475        35.84478        -1.62508
C         49.03772        35.05556        -1.24150
C         50.36459        37.23527        -0.94585
C         49.06702        37.98742        -0.70471
C         50.29439        40.22145        -0.70385
C         49.08013        39.45821        -0.78163
C         50.35448        41.64044        -0.35897
C         49.16198        42.35612         0.22661
C         50.50155        44.32918         0.50787
C         49.18549        43.79243         0.83341
C         51.49681        29.47534         0.06560
C         52.78602        31.56530        -0.80866
C         51.62899        30.78080        -0.45064
C         52.68535        32.77562        -1.09911
C         51.60628        33.67669        -1.26934
C         52.67373        35.97255        -1.50874
C         51.60192        35.03175        -1.42357
C         52.66366        37.22380        -1.47661
C         51.56638        38.08327        -1.16369
C         52.64219        40.34768        -1.00882
C         51.53281        39.46265        -0.95057
C         52.71718        41.56351        -0.73060
C         51.59959        42.35292        -0.34812
C         51.51628        43.67553         0.19642
O         48.05026        35.17621        -2.29836
O         39.52463        45.37732         3.62510
O         40.91158        30.47674        -1.59153
O         35.58823        43.01926         2.35321
O         36.57216        39.28091        -2.35737
O         43.33887        37.59849         0.83910
O         42.79379        44.58039         2.95199
O         49.85335        37.35326         0.40560
O         35.53184        33.41582         0.59558
O         49.24826        42.63328         1.66239
O         37.78776        31.74273        -2.13516
O         44.60767        42.66929        -0.94545
O         42.01681        26.90230         1.49736
O         46.09008        35.45487         0.91119
O         47.77550        41.35342        -1.45434
O         38.06317        27.38912         2.26739
O         39.68720        44.65497         0.17124
O         44.47457        28.47974        -0.65827
O         39.38724        33.56511        -3.19587
O         38.50007        42.41126        -1.12502
O         33.25022        35.79981        -3.67713
O         35.83457        42.41499        -1.13199
O         41.05256        40.17785        -1.85325
O         40.52655        32.66368        -2.94493
O         44.38923        28.84366         3.49273
H         45.21675        28.66864         3.98910
O         47.02439        43.20105         2.64837
H         46.33492        42.59640         3.00948
O         44.27259        33.78945        -2.61077
H         43.48326        34.28701        -2.95760
O         47.65505        44.71497        -0.65386
H         46.83132        45.22406        -0.80458
O         31.51199        34.11718        -3.65333
H         31.40131        34.81136        -4.33612
O         35.90561        30.25524        -1.30438
H         36.34651        30.55292        -2.13650
O         45.36001        31.18442        -2.31847
H         44.90763        31.93694        -2.77090
O         41.38735        47.06530         3.81598
H         40.63830        46.65206         4.31019
O         31.30742        41.18676         1.54703
H         30.47905        41.36935         2.03597
O         32.52212        42.27649        -1.71992
H         33.39726        42.33201        -2.15862
O         49.89410        32.68944        -2.63865
H         50.53839        32.10418        -3.08835
O         44.47567        42.32239         2.68761
H         44.18193        42.79936         3.49562
O         35.23169        28.08720         0.82812
H         36.01926        27.59697         1.14861
O         33.76693        32.19422         1.86405
H         34.26414        33.04522         1.87681
O         30.69050        30.81066        -0.96312
H         30.42272        31.51666        -1.58650
O         37.98430        35.99549        -3.31730
H         38.70605        36.60212        -3.58675
O         35.32292        39.49798         1.05664
H         34.48312        39.72707         1.50954
O         34.25493        33.38223        -2.93795
H         33.66595        33.92239        -3.51827
O         38.00275        43.29243         2.99192
H         37.15018        43.27303         3.48627
O         33.43160        35.61109        -0.15036
H         33.91454        35.11576         0.54641
O         41.91938        35.21894        -2.90874
H         41.21854        34.67739        -3.34553
O         49.58313        33.87741         0.77841
H         48.89069        34.37948         1.25804
O         40.89783        47.24426         0.19463
H         40.79303        47.96927        -0.45431
O         50.25214        36.13931        -3.03272
H         49.42028        35.74753        -3.39218
