         664
 CSIRO Nanostructure Databank - Neutral Graphene Oxide Data Set
C          5.84313        31.87831        -1.07985
C          5.86357        33.23278        -0.96587
C          8.23456        27.48894        -1.01569
C          8.31332        28.95149        -1.55287
C          7.05774        29.75527        -1.33366
C          8.27961        31.80988        -0.65766
C          7.06626        31.09886        -1.01770
C          8.31855        33.19786        -0.57388
C          7.09755        33.95909        -0.76079
C          8.33701        36.07112        -0.52945
C          7.11824        35.34165        -0.72731
C          8.35338        37.47886        -0.51519
C         10.72307        23.21888        -0.46235
C         10.79312        24.59995        -0.90192
C          9.61042        25.37161        -0.85365
C         10.80033        27.46186        -1.17119
C          9.58614        26.76956        -1.04232
C         10.80737        28.94281        -1.21700
C          9.50946        29.60234        -0.88597
C         10.77947        31.72496         0.01269
C          9.49400        31.01216        -0.40075
C         10.77681        33.21582        -0.21069
C          9.56720        33.91077        -0.34906
C         10.75502        36.07539        -0.11526
C          9.55797        35.35247        -0.34609
C         10.76043        37.48451        -0.12588
C          9.55119        38.19757        -0.35409
C         10.69900        40.37212        -0.55562
C          9.55219        39.64896        -0.47210
C         10.71297        41.89039        -0.68350
C         13.46862        19.14875         0.46857
C         13.33400        20.42313        -0.09983
C         12.06923        21.07358        -0.01474
C         13.48631        23.23427        -1.28049
C         11.67936        22.23456        -0.73930
C         13.28922        24.63090        -1.10857
C         12.04778        25.30479        -1.12937
C         13.25558        27.51694        -1.13916
C         12.05054        26.76596        -1.16027
C         13.33666        28.94542        -0.93590
C         12.08054        29.71503        -1.02490
C         13.24301        31.75038        -0.23352
C         12.06621        31.09032        -0.48055
C         13.25975        33.18902        -0.00493
C         12.02287        33.88554        -0.02484
C         13.36512        36.08498         0.10510
C         11.98992        35.33085         0.18424
C         13.31716        37.48900        -0.29033
C         12.04424        38.22020        -0.07180
C         13.17221        40.30673        -1.12057
C         12.00611        39.68472        -0.40980
C         13.23285        41.79585        -1.01710
C         12.08875        42.46427        -0.25408
C         13.36218        44.59733        -0.57988
C         12.17719        43.96196        -0.36684
C         13.38447        46.10262        -0.42731
C         15.83546        15.16300         1.92865
C         15.85695        16.35950         1.23144
C         14.66542        17.12864         1.06395
C         15.86270        18.81523        -0.36541
C         14.64514        18.36021         0.42156
C         15.92027        20.33550        -0.40403
C         14.58176        21.02792        -0.77424
C         15.59442        23.36826        -0.17934
C         14.54242        22.55391        -0.67710
C         15.78778        24.66165        -0.64771
C         14.50629        25.36066        -0.77535
C         15.79643        27.53580        -1.17780
C         14.51222        26.83022        -0.83771
C         15.79146        28.79996        -0.30475
C         14.50147        29.56718        -0.53222
C         15.77631        31.74013        -0.30241
C         14.51164        30.97541         0.01278
C         15.75560        33.12648        -0.30535
C         14.51966        33.87953        -0.09466
C         15.74000        36.00095        -0.57496
C         14.56182        35.29024        -0.16889
C         15.67645        37.37619        -0.88535
C         14.45896        38.11334        -0.77037
C         15.70149        40.27235        -1.30109
C         14.41144        39.47315        -1.45387
C         15.74997        41.72055        -1.34004
C         14.54230        42.49396        -1.10272
C         15.92088        44.55190        -0.80388
C         14.57867        43.85643        -0.87843
C         15.84728        46.03921        -1.05199
C         14.67654        46.77865        -0.82060
C         15.91879        48.90773        -1.03103
C         14.71752        48.18039        -0.82982
C         15.90849        50.28697        -0.57711
C         18.23071        11.23744         3.31012
C         18.22664        12.71055         3.64176
C         17.00161        13.39244         3.11227
C         18.32469        14.85420         1.57078
C         17.03897        14.45126         2.25874
C         18.35016        16.30360         1.15073
C         17.13604        16.95044         0.83225
C         18.39359        18.79195        -0.10677
C         17.15100        18.20701         0.19037
C         18.39042        20.08770        -0.86318
C         17.17505        20.89424        -0.45654
C         18.43452        23.06046        -0.69988
C         17.44961        22.28386        -0.17209
C         18.31522        24.53172        -0.95769
C         17.05717        25.34560        -0.77555
C         18.31864        27.46777        -1.29439
C         17.06852        26.69870        -1.06084
C         18.28900        28.92242        -0.89097
C         17.02414        29.62301        -0.53669
C         18.28204        31.72247        -0.51846
C         17.01018        30.99742        -0.47543
C         18.23477        33.16741        -0.54351
C         16.99833        33.85713        -0.51969
C         18.19568        35.95553        -0.98143
C         16.98423        35.26770        -0.68246
C         18.16511        37.46445        -1.04374
C         16.84876        38.02947        -1.60236
C         18.07180        40.25599        -1.90327
C         16.85449        39.55058        -1.49016
C         18.18524        41.71856        -1.80420
C         16.97357        42.40099        -1.55957
C         18.29537        44.57054        -1.67445
C         16.93299        43.89718        -1.75034
C         18.27555        45.95995        -1.59247
C         17.04614        46.71245        -1.37416
C         18.34587        48.75994        -1.63297
C         17.06709        48.13445        -1.41559
C         18.32038        50.74633        -0.69912
C         17.00600        51.09001        -0.22807
C         18.15411        52.60716         1.30408
C         16.96872        52.12596         0.76280
C         18.13664        53.61231         2.34611
C         20.54210         7.18397         1.93786
C         20.61688         8.45546         2.55668
C         19.41200         9.17390         2.79606
C         20.69705        11.12683         3.68487
C         19.40058        10.49726         3.28960
C         20.76193        12.63377         3.56110
C         19.52297        13.32164         3.12551
C         20.84091        15.04592         1.94753
C         19.57330        14.40366         2.29760
C         20.84445        16.25733         1.22307
C         19.59141        16.91081         0.86143
C         20.87792        18.76535        -0.31304
C         19.60708        18.17747         0.23084
C         20.86083        20.27184        -0.45711
C         19.66506        20.89954        -0.73376
C         20.88962        23.12077        -0.89175
C         19.64762        22.32787        -1.26339
C         20.87446        24.52113        -0.93421
C         19.61070        25.24196        -1.27154
C         20.85244        27.45069        -0.88853
C         19.67890        26.74860        -1.53016
C         20.85574        28.96073        -1.03520
C         19.54890        29.56050        -0.35112
C         20.72328        31.82254        -0.01719
C         19.49472        31.06201        -0.46609
C         20.71727        33.25037        -0.50105
C         19.46324        33.88598        -0.69157
C         20.65299        35.89198        -1.59759
C         19.40980        35.27486        -1.01297
C         20.62932        37.40390        -1.57919
C         19.42022        38.05795        -1.64050
C         20.58854        40.23504        -2.20571
C         19.34058        39.47058        -2.07799
C         20.68156        41.62502        -2.10366
C         19.45849        42.38094        -1.90501
C         20.79891        44.48512        -1.77576
C         19.51944        43.81572        -1.79413
C         20.82753        45.97016        -1.79895
C         19.53900        46.70341        -1.69608
C         20.79077        48.92313        -1.08750
C         19.54173        48.14433        -1.39231
C         20.66599        49.97904         0.02947
C         19.48103        50.93529         0.02137
C         20.63911        52.49447         1.50115
C         19.43550        51.99104         0.99011
C         20.58741        53.90541         2.04843
C         19.29245        54.17979         2.80432
C         20.38437        55.60205         4.50427
C         19.26203        55.10273         3.92194
C         20.33283        56.38895         5.79732
C         22.79174         4.39190         0.87127
C         21.63206         5.13076         1.09248
C         22.97629         6.95946         2.04930
C         21.70132         6.42152         1.68720
C         23.06456         8.25584         2.65257
C         21.88628         9.00769         2.90216
C         23.29373        11.00799         3.70262
C         21.93892        10.22956         3.80338
C         23.35564        12.49538         3.40220
C         22.07562        13.30059         3.28181
C         23.30422        15.03166         1.98529
C         22.07375        14.47966         2.39101
C         23.30706        16.29348         1.31433
C         22.08061        16.92568         0.95078
C         23.32869        18.88783         0.16844
C         22.11883        18.20192         0.30279
C         23.38033        20.25437        -0.48228
C         22.08667        21.01132        -0.43701
C         23.29590        23.19341        -0.33643
C         22.09250        22.43122        -0.55435
C         23.26477        24.62051        -0.30515
C         22.02704        25.27647        -0.57720
C         23.12417        27.42533         0.03877
C         21.97163        26.72334        -0.49029
C         22.84890        28.80403         0.37986
C         21.98500        29.62262        -0.29779
C         23.23682        31.89258         0.38440
C         22.08061        31.14856        -0.38091
C         23.26395        33.42484        -0.07643
C         21.94626        33.96610        -0.64889
C         23.20964        36.03596        -1.32483
C         21.94343        35.26761        -1.13190
C         23.18609        37.45853        -1.84008
C         21.83153        38.06907        -2.04189
C         23.54980        40.42355        -2.61673
C         21.67169        39.35097        -2.51885
C         23.36620        41.73967        -2.18658
C         22.02344        42.30810        -1.73295
C         23.29626        44.52876        -1.78131
C         22.02669        43.81877        -1.81054
C         23.32945        46.05761        -1.78171
C         22.04825        46.62570        -1.18139
C         23.26225        48.66297        -0.35733
C         22.07439        48.15254        -1.10280
C         23.19305        49.95682         0.30342
C         21.95740        50.64618         0.46440
C         23.10184        52.37199         1.83019
C         21.89206        51.84188         1.22905
C         23.06553        53.49061         2.67900
C         21.83532        54.30114         2.82130
C         22.86459        55.28320         4.99987
C         21.72591        55.22573         3.99197
C         22.83750        56.61753         5.70485
C         21.59976        57.16387         6.07062
C         22.73923        59.05889         7.08497
C         21.55207        58.39055         6.75299
C         24.04061         4.90383         1.22607
C         25.41879         6.73225         2.17278
C         24.15442         6.19020         1.81647
C         25.51628         8.00947         2.72632
C         24.35683         8.76877         2.98324
C         25.76977        10.83144         2.96063
C         24.50904        10.18675         3.39028
C         25.86494        12.33446         3.05561
C         24.56606        13.04383         2.74662
C         25.79007        14.90534         1.67431
C         24.55577        14.31461         2.19131
C         25.77569        16.18837         1.14187
C         24.54529        16.92078         0.99581
C         25.80681        18.97427         0.38197
C         24.55328        18.24930         0.49965
C         25.77678        20.40203         0.20857
C         24.56639        21.08140        -0.05093
C         25.73824        23.25418         0.03530
C         24.53072        22.49650        -0.10399
C         25.71224        24.68840         0.02979
C         24.46910        25.39080        -0.05209
C         25.69133        27.57958         0.27342
C         24.41727        26.82481         0.13258
C         25.77628        28.98669         0.34192
C         24.69106        29.88721         0.61747
C         25.75966        31.81082        -0.37355
C         24.57531        31.17840         0.15786
C         25.71023        33.10967        -0.84339
C         24.42112        33.79009        -1.02655
C         25.74884        35.92664        -1.61063
C         24.44519        35.20186        -1.54518
C         25.77297        37.35932        -2.03105
C         24.50023        38.11363        -2.31217
C         25.83058        40.31010        -1.99109
C         24.63979        39.61480        -2.28064
C         25.80071        41.72620        -1.96022
C         24.57680        42.43726        -1.93075
C         25.80472        44.69999        -1.95222
C         24.52355        43.88234        -1.83386
C         25.73252        45.94906        -1.09892
C         24.51561        46.61085        -1.00091
C         25.60327        48.35466         0.48294
C         24.41621        47.88414        -0.33650
C         25.70157        49.88018         0.45895
C         24.38667        50.52456         0.83659
C         25.57209        52.25193         2.15964
C         24.35679        51.70148         1.59709
C         25.51287        53.38302         3.00230
C         24.24509        53.95771         3.35112
C         25.37702        55.57785         4.83012
C         24.18251        54.95863         4.34471
C         25.29842        56.71430         5.67506
C         24.04831        57.28517         6.04307
C         23.97203        58.51589         6.74831
C         26.86623         8.58255         3.08899
C         28.17650        10.69611         2.59612
C         26.92194        10.07488         2.83929
C         28.26883        12.07121         2.30932
C         27.04744        12.87041         2.30099
C         28.28842        14.68573         1.23019
C         27.01365        14.11123         1.71943
C         28.28018        16.08595         0.71444
C         26.96032        16.79013         0.40598
C         28.26117        19.00575         0.49409
C         27.02348        18.29716         0.52007
C         28.23205        20.42811         0.35937
C         26.99767        21.13203         0.24485
C         28.20690        23.27304         0.11161
C         26.97669        22.55437         0.14051
C         28.19128        24.69710         0.01896
C         26.95075        25.41310         0.06194
C         28.21301        27.50534         0.04994
C         26.95542        26.84473         0.13164
C         28.33655        28.95642         0.20825
C         27.04147        29.74851         0.29434
C         28.23549        31.80651        -0.47604
C         27.02835        31.13185        -0.20767
C         28.22624        33.14560        -0.91907
C         26.93898        33.76627        -1.39043
C         28.13114        36.03053        -0.86818
C         26.90301        35.27488        -1.30368
C         28.16291        37.45124        -1.36955
C         27.05172        38.10220        -1.81486
C         28.27038        40.25371        -1.85876
C         27.08840        39.57241        -1.91716
C         28.28771        41.73520        -1.60847
C         27.08778        42.47022        -2.22239
C         28.27193        44.53058        -1.43614
C         27.08433        43.90796        -1.74934
C         28.26464        46.02485        -1.18848
C         26.95333        46.54952        -0.64258
C         28.13737        48.36635         0.51608
C         26.92486        47.74728         0.05019
C         28.09281        49.63952         1.18176
C         26.89181        50.36852         1.25446
C         28.03445        52.15066         2.52474
C         26.82720        51.59247         1.95358
C         27.96090        53.34071         3.27977
C         26.71678        53.94043         3.57087
C         26.63063        55.06735         4.41388
C         29.50630        12.68524         2.03140
C         30.77045        14.70293         1.39760
C         29.57483        14.04714         1.64442
C         30.80442        16.16694         1.24232
C         29.49101        16.91024         1.01271
C         30.74890        19.02797         0.68530
C         29.52145        18.33713         0.64534
C         30.68872        20.46318         0.56004
C         29.45484        21.14729         0.34098
C         30.67475        23.27479         0.04611
C         29.44512        22.56833         0.18327
C         30.66968        24.67593        -0.16691
C         29.43153        25.38529        -0.12522
C         30.67559        27.48897        -0.40094
C         29.43717        26.80581        -0.18293
C         30.69806        28.92788        -0.48920
C         29.53931        29.65311        -0.22494
C         30.72945        31.76113        -0.79852
C         29.55419        31.16008        -0.08853
C         30.68238        33.13653        -1.39243
C         29.42336        33.89369        -1.07982
C         30.66239        36.01776        -1.07020
C         29.42856        35.29012        -1.09767
C         30.68238        37.42572        -1.02967
C         29.40409        38.23081        -0.99640
C         30.76405        40.29586        -1.39716
C         29.56463        39.48658        -1.84624
C         30.80711        41.65234        -1.50682
C         29.60646        42.42897        -1.99112
C         30.73807        44.49570        -1.07523
C         29.55402        43.85174        -1.45987
C         30.68701        45.82595        -0.51704
C         29.45767        46.49758        -0.38951
C         30.53404        48.06102         1.25599
C         29.36619        47.67547         0.37949
C         30.51751        49.50308         1.64789
C         29.31970        50.20817         1.72201
C         29.26162        51.48750         2.33760
C         31.99154        16.88809         0.80338
C         33.23622        18.82821         0.05873
C         32.00957        18.26147         0.60004
C         33.61647        20.15086         0.28324
C         31.83529        21.27088         0.70105
C         33.17411        23.21268        -0.10673
C         31.92151        22.59370         0.20752
C         33.14621        24.61219        -0.40864
C         31.91270        25.34889        -0.35419
C         33.13474        27.45163        -0.76258
C         31.90163        26.76665        -0.51923
C         33.14116        28.88966        -0.90562
C         31.93642        29.61256        -0.76096
C         33.14917        31.73342        -1.19298
C         31.91716        31.04213        -0.92779
C         33.20407        33.18613        -1.10002
C         31.94335        33.91279        -1.12953
C         33.22084        36.02485        -0.97942
C         31.91059        35.27465        -1.02230
C         33.07794        37.38982        -0.33970
C         31.89122        38.15733        -0.87022
C         33.14706        40.27463        -0.64742
C         31.93358        39.55550        -0.96745
C         33.28987        41.63724        -0.93254
C         32.12122        42.37962        -1.55104
C         33.21258        44.47973        -0.86218
C         32.01909        43.81724        -1.09411
C         33.23860        45.95999        -0.56376
C         31.90860        46.47702        -0.07136
C         31.84741        47.58343         0.71219
C         34.50109        21.02170        -0.37582
C         35.56891        23.16953        -0.67451
C         34.41176        22.45872        -0.31357
C         35.60304        24.58148        -0.86923
C         34.34675        25.31087        -0.74119
C         35.62048        27.40479        -1.11673
C         34.32974        26.70951        -0.89872
C         35.64123        28.88958        -1.25195
C         34.34592        29.59710        -1.18359
C         35.60308        31.74767        -1.44140
C         34.33397        30.99445        -1.28843
C         35.64567        33.02679        -0.63067
C         34.39973        33.83611        -0.86460
C         35.67547        36.03322        -0.44526
C         34.37616        35.24626        -0.31311
C         35.67392        37.42289        -0.39460
C         34.39069        38.13250        -0.35288
C         36.13761        40.52655        -0.62239
C         34.26095        39.48809        -0.15717
C         35.83873        41.73728        -1.19579
C         34.54269        42.38546        -0.96898
C         34.45600        43.77942        -0.99298
C         36.78108        25.21620        -1.24504
C         38.05925        27.40199        -1.47822
C         36.78277        26.63704        -1.73820
C         38.10805        28.79713        -1.56619
C         36.83268        29.52174        -1.99834
C         38.14916        31.76941        -1.57249
C         36.85735        31.04116        -1.78790
C         38.10091        33.17153        -1.07601
C         36.92737        33.81260        -0.78452
C         38.18297        35.98076        -0.69317
C         36.95075        35.23907        -0.24293
C         38.13413        37.34114        -0.85919
C         36.94614        38.14460        -0.66212
C         37.10661        39.50726        -0.91981
C         39.28500        29.50427        -1.26638
C         40.57920        31.68844        -0.83219
C         39.41168        30.96050        -1.37428
C         40.58076        33.04303        -0.74338
C         39.38511        33.85270        -0.90562
C         39.40477        35.22842        -0.79459
O         18.46731        39.70315        -3.23438
O         22.90247        13.39397         4.48045
O         11.45374        29.58125        -2.36504
O         14.43237        39.14497        -2.83845
O         22.59116        39.83763        -3.42571
O         23.35638        37.15432        -0.39143
O         18.23387        28.54948        -2.31228
O         30.01960        16.76390         2.36385
O         14.39395        26.20686         0.48177
O          9.25877        29.84414         0.53246
O         12.46835        22.49848        -1.89740
O         28.44104        14.97653        -0.23175
O         12.69607        35.78766         1.36903
O         35.29832        40.18304         0.45809
O         21.70436        49.04247        -2.20816
O         12.76933        41.14374        -2.24750
O         36.01517        28.25141         0.01913
O         20.26795        46.51690        -3.01575
O         22.09146        55.76319         2.68143
O         32.92757        20.75964         1.37021
O         23.46906        34.21767         1.06499
O         20.80718        18.29697        -1.81518
O         18.35773        50.11995        -1.93564
O         20.64215        11.99289         4.87264
O         18.81778        24.67286        -2.36139
O         12.23079        39.25562         0.97253
O         36.08582        31.77794        -2.82289
O         16.52242        22.85239         0.70767
O         39.03627        31.53761        -2.70502
O         25.20323        37.47555        -3.40649
O         27.84818        29.50436         1.51254
O         24.17820        10.59210         4.80018
O         24.16500        34.08523        -2.45684
O         23.65356        29.35080         1.37796
O         26.11981        12.61590         4.47563
H         25.42600        12.12918         4.98551
O         29.21334        38.67196         0.38253
H         28.92571        37.86987         0.88607
O         19.60421        22.20544        -2.70938
H         18.91524        21.53212        -2.92178
O         13.12554        46.38496         0.96416
H         13.12874        47.35708         1.08312
O         20.53704        54.75530         0.86275
H         20.94933        55.61264         1.12179
O         12.21390        42.15358         1.15787
H         12.99567        42.62417         1.51386
O         20.84478        29.32778        -2.42685
H         20.32369        28.64340        -2.92287
O         23.43257        46.51040        -3.14004
H         24.25896        46.11754        -3.51937
O         18.16436        37.92345         0.34979
H         18.95089        37.54767         0.79965
O          8.57888        28.89439        -2.97341
H          7.74624        28.67446        -3.43918
O         15.64966        27.92527        -2.55947
H         16.50699        28.32810        -2.84749
O         10.37521        42.30349        -2.00617
H         11.05933        41.92652        -2.60889
O          7.71694        27.49318         0.31641
H          8.16488        28.21436         0.81383
O         29.75650        31.44362         1.34138
H         29.09296        30.88783         1.82335
O         22.04029        46.19877         0.21381
H         21.39211        46.74744         0.70710
O         19.61218        29.21372         1.04991
H         20.08020        29.94644         1.52361
O         28.15182        41.87267        -0.16154
H         28.58749        41.10087         0.26305
O         22.05033        17.69746        -2.20434
H         22.66772        18.47917        -2.30654
O         16.68181        37.68306        -2.98696
H         15.83972        38.16477        -3.25960
O         14.53527        30.81626         1.49645
H         13.61174        30.89683         1.82313
O         10.87338        31.59352         1.47369
H         10.34864        30.79540         1.71969
O         26.91239        33.46648        -2.84309
H         25.98501        33.64634        -3.14174
O         19.94500        26.85727        -2.96265
H         19.37360        26.18416        -3.40372
O         32.42960        42.46948        -3.01303
H         33.26020        42.98909        -3.09155
O         18.35764        14.09367         0.30990
H         17.62721        14.42820        -0.25330
O         28.37185        46.62164        -2.53729
H         28.40054        47.59667        -2.42620
O         34.18421        35.02425         1.12672
H         33.68257        35.80307         1.48611
O         23.62234        19.98035        -1.93163
H         23.48845        20.82455        -2.41502
O         15.72685        18.29490        -1.71381
H         16.37693        18.78432        -2.27078
O         21.86718         9.67694         5.13670
H         21.81554        10.43622         5.75812
O         33.61248        36.26516        -2.35238
H         33.51571        35.42845        -2.85417
O         20.58271        31.81212         1.44093
H         19.85210        32.42128         1.67865
O         27.12578         8.34524         4.48581
H         26.42836         8.79991         5.00353
O         22.34308        31.44814        -1.76739
H         21.79533        30.84910        -2.33320
O         26.66651        16.57210        -1.00626
H         27.05427        15.69387        -1.23772
O         22.05768        42.02378        -0.27437
H         22.72877        42.61621         0.12884
O         23.01297        31.89292         1.78436
H         23.16873        32.84512         2.05485
O         36.56309        26.55369        -3.18136
H         36.64133        27.46970        -3.55003
O         22.61494        54.23864         5.99198
H         21.86253        54.54480         6.55732
O         33.57969        46.67842        -1.76505
H         34.40741        46.29575        -2.12129
O         20.18205        55.43446         6.87996
H         19.36727        54.91486         6.71781
O         20.32547        49.07964         1.17218
H         20.27347        49.63806         1.97836
O         18.23015        19.75921        -2.29194
H         18.98820        19.17117        -2.52445
O         16.42513        44.12986        -3.09188
H         16.99649        43.65139        -3.72849
O         36.63982        29.28631        -3.41301
H         36.33675        30.13858        -3.80929
O         29.85063        39.05590        -3.20102
H         29.86091        39.85282        -3.77313
O         25.87075        45.18734        -3.33947
H         26.71589        45.69496        -3.41347
O         16.41553        44.37807         0.55490
H         15.77627        44.80608         1.16297
O         30.63840        32.93781        -2.86100
H         29.69886        32.80828        -3.11823
O         15.83132        28.39948         1.08660
H         15.52797        29.17561         1.61810
O         37.06192        35.11835         1.21974
H         36.15365        34.93856         1.56062
O         20.58365        35.56939        -3.03452
H         19.73812        35.92749        -3.38300
O         14.48854        20.72033        -2.19096
H         13.61942        21.06738        -2.50312
O         35.58954        32.58041         0.76407
H         35.08542        33.25672         1.27419
O         25.36909        47.96008         1.86348
H         25.21713        46.99207         1.87851
O         29.74637        42.48410        -3.44355
H         30.70629        42.65682        -3.62617
O         18.16130        12.87964         5.08531
H         19.00181        12.51141         5.45406
O         32.74004        37.18945         1.08290
H         32.62882        38.07283         1.49512
O         28.01399        36.15052         0.60871
H         27.06253        36.24804         0.83219
O         27.15380        42.49371        -3.66675
H         28.05676        42.79014        -3.93364
O         30.32868        47.30661         2.52718
H         29.46900        47.60358         2.89680
O         25.96039        50.24167        -0.93053
H         25.92088        51.21801        -1.00470
H          4.89690        31.34936        -1.26583
H          4.93072        33.80982        -1.04966
H          7.51145        26.90881        -1.64929
H          6.10166        29.28599        -1.61631
H          6.18106        35.90354        -0.85715
H          7.41340        38.02819        -0.67346
H          9.89767        22.96755         0.22300
H          8.65601        24.85717        -0.66527
H          8.57773        40.15434        -0.55345
H          9.93373        42.31297         0.00145
H         12.58556        18.70550         0.95878
H         11.34919        20.65920         0.71018
H         11.28480        44.55393        -0.11204
H         12.54435        46.54434        -1.03972
H         14.87939        14.78151         2.31908
H         13.74375        16.76212         1.54347
H         13.80089        48.73665        -0.57503
H         14.93080        50.62095        -0.18834
H         17.28997        10.75079         3.01043
H         16.04050        13.08829         3.55578
H         16.00261        52.50890         1.12402
H         17.16771        53.89379         2.78817
H         19.55571         6.77635         1.67121
H         18.45733         8.71463         2.50035
H         18.27384        55.35117         4.34485
H         19.44099        57.07527         5.79842
H         22.72312         3.39471         0.41429
H         20.65115         4.72036         0.81350
H         22.69025        60.01521         7.62408
H         20.58000        58.81962         7.03522
H         24.95013         4.31190         1.05032
H         26.33033         6.14483         1.98885
H         26.22807        57.20737         5.99474
H         24.90057        59.03908         7.01794
H         27.67315         8.06060         2.51680
H         29.08672        10.07950         2.58693
H         28.88056        53.76828         3.70568
H         27.55404        55.52268         4.80143
H         30.43571        12.11024         2.15646
H         31.72363        14.16243         1.49821
H         31.42998        49.94176         2.07943
H         30.18183        51.92626         2.75024
H         32.89636        16.30280         0.58239
H         33.87730        18.16849        -0.54467
H         34.03119        46.16690         0.21410
H         32.76850        48.09366         1.03245
H         35.30792        20.59761        -0.99229
H         36.49640        22.60345        -0.84921
H         36.52549        42.20790        -1.91553
H         35.38590        44.36883        -0.99846
H         37.70077        24.61952        -1.35026
H         38.97480        26.85102        -1.21181
H         39.05737        37.87283        -1.14006
H         38.06251        39.82240        -1.36936
H         40.15711        28.93852        -0.90349
H         41.48555        31.11445        -0.58840
H         41.49884        33.56299        -0.43016
H         40.36546        35.76575        -0.77395
