         620
 CSIRO Nanostructure Databank - Neutral Graphene Oxide Data Set
C         23.05349        27.24683         0.08787
C         23.06441        28.62264         0.24792
C         23.07802        31.53652         0.48526
C         23.08330        32.90891         0.64664
C         23.15590        35.79162         1.22025
C         23.19480        37.15995         1.46461
C         23.47112        39.85391         2.51148
C         23.60990        41.14533         2.98464
C         23.47206        45.09374         2.50770
C         23.38213        46.36859         1.91406
C         25.38240        24.44462        -0.66319
C         24.23332        25.12351        -0.37304
C         25.46390        27.26649        -0.36128
C         24.23970        26.54738        -0.21770
C         25.47515        28.68506        -0.16954
C         24.26113        29.36837         0.12723
C         25.51176        31.51726         0.28826
C         24.27719        30.80740         0.30520
C         25.50617        32.92070         0.50612
C         24.29845        33.63338         0.67359
C         25.53865        35.80540         0.73183
C         24.32001        35.07793         0.88473
C         25.55932        37.22313         0.88688
C         24.38931        37.89354         1.32773
C         25.60244        40.07837         1.30701
C         24.47259        39.29771         1.69178
C         25.65318        41.47449         1.63686
C         24.67517        41.94081         2.53172
C         25.68348        44.69848         1.45811
C         24.58852        44.30271         2.29101
C         25.66562        46.08869         1.05949
C         24.48152        46.89100         1.24287
C         25.56792        48.84559         0.23766
C         24.47248        48.26426         0.77666
C         27.86783        23.00856        -1.39606
C         27.80653        24.43548        -1.16805
C         26.63170        25.13373        -0.84664
C         27.88584        27.29862        -0.81553
C         26.66414        26.56813        -0.68428
C         27.90706        28.71683        -0.60596
C         26.70599        29.40875        -0.27693
C         27.96877        31.50556        -0.15456
C         26.74380        30.81520        -0.02128
C         28.06304        32.92648         0.21756
C         26.78014        33.65639         0.58383
C         27.95124        35.82710         0.23137
C         26.76439        35.12180         0.48658
C         27.94692        37.27058         0.26903
C         26.76473        37.96207         0.64624
C         27.92632        40.11868         0.44975
C         26.75157        39.39573         0.74384
C         27.84775        41.60176         0.34986
C         26.67386        42.34745         0.97235
C         27.98327        44.49538         0.68197
C         26.77589        43.85378         1.10181
C         28.04029        45.93873         0.56877
C         26.83489        46.68877         0.56550
C         28.17454        48.83871         0.11452
C         26.83060        48.09985         0.12134
C         28.27583        50.31112         0.19663
C         30.28441        22.99907        -0.82250
C         29.03611        22.32016        -1.32845
C         30.36362        24.42053        -1.33690
C         29.05077        25.18471        -1.38572
C         30.33533        27.30702        -1.14065
C         29.09731        26.62702        -1.13015
C         30.35441        28.72853        -0.98915
C         29.13637        29.42773        -0.73956
C         30.37573        31.57953        -0.75364
C         29.15710        30.84469        -0.55748
C         30.37783        33.01365        -0.72739
C         29.19934        33.72535        -0.27243
C         30.24065        35.91156        -0.74707
C         29.13747        35.11398        -0.18304
C         30.33670        37.35009        -0.41405
C         29.14840        38.01297         0.02126
C         30.38458        40.15530         0.08086
C         29.13201        39.43234         0.14875
C         30.37526        41.54048         0.23013
C         29.12471        42.33762        -0.05772
C         30.42813        44.44046         0.44497
C         29.18560        43.76729         0.44066
C         30.48577        45.86888         0.60589
C         29.28806        46.61466         0.51965
C         30.49369        48.71194         0.96709
C         29.36032        48.06703         0.54880
C         30.45739        50.15627         1.41489
C         29.33650        50.91910         0.74963
C         32.83982        20.17990        -1.02172
C         31.62952        20.86610        -1.04008
C         32.80975        22.99399        -0.95263
C         31.59486        22.26428        -1.00650
C         32.81359        24.44547        -0.95912
C         31.60742        25.16854        -1.11500
C         32.81715        27.29964        -1.15570
C         31.58841        26.58549        -1.17414
C         32.81725        28.73772        -1.21943
C         31.58538        29.44537        -1.07899
C         32.81156        31.58686        -1.21412
C         31.58669        30.87535        -1.02215
C         32.79487        33.02363        -1.25655
C         31.56022        33.71436        -1.06243
C         32.71641        35.97552        -1.46039
C         31.46833        35.18092        -1.22382
C         32.76517        37.39703        -1.02804
C         31.56053        38.04297        -0.55316
C         32.85071        40.10585        -0.21026
C         31.61591        39.43135        -0.17588
C         32.93977        41.48539         0.26485
C         31.61461        42.25408         0.48021
C         32.89262        44.38796         0.39045
C         31.65957        43.71891         0.40478
C         32.92202        45.81713         0.56268
C         31.73184        46.53190         0.76119
C         32.98202        48.73271         0.92612
C         31.74682        47.94404         1.30206
C         33.02778        50.11978         1.08491
C         31.80838        50.86193         1.33173
C         33.12777        52.88904         1.69038
C         31.88254        52.20404         1.62440
C         35.37439        18.74668        -0.84975
C         35.32122        20.15310        -0.82272
C         34.06233        20.86921        -0.92797
C         35.28791        23.02240        -0.78507
C         34.05214        22.29532        -0.89635
C         35.28732        24.44853        -0.79785
C         34.04443        25.15442        -0.90861
C         35.28277        27.27414        -1.07221
C         34.04508        26.57661        -1.03876
C         35.28940        28.67986        -1.51005
C         34.02984        29.45544        -1.41728
C         35.26487        31.62671        -1.68641
C         34.02213        30.86531        -1.44947
C         35.26336        33.08263        -1.46995
C         34.02587        33.74128        -1.43230
C         35.29811        35.93930        -1.66217
C         33.99614        35.20289        -1.66362
C         35.25609        37.43277        -1.42555
C         33.98078        38.08953        -1.04980
C         35.28296        40.18112        -0.66344
C         34.04673        39.46291        -0.64202
C         35.32098        41.59301        -0.41600
C         34.14117        42.27137        -0.02220
C         35.35345        44.39225         0.05829
C         34.12946        43.67258         0.16333
C         35.35077        45.80878         0.27925
C         34.17885        46.50690         0.52427
C         35.50394        48.73634         0.63027
C         34.17493        47.99229         0.53761
C         35.51977        50.14483         1.02223
C         34.30417        50.83618         1.12462
C         35.63389        52.96314         1.68833
C         34.31733        52.24229         1.44291
C         35.64436        54.40173         1.23402
C         37.77495        18.75174        -0.43568
C         36.56942        18.06480        -0.65357
C         37.76483        20.18078        -0.48707
C         36.53532        20.88218        -0.66474
C         37.74391        23.04225        -0.55001
C         36.52173        22.31729        -0.66991
C         37.73866        24.47064        -0.53488
C         36.51222        25.17442        -0.69427
C         37.71600        27.36934        -0.65839
C         36.50361        26.61209        -0.83787
C         37.79107        28.74621        -0.89011
C         36.63021        29.40815        -1.51839
C         37.82282        31.64534        -1.28158
C         36.62382        30.89686        -1.65443
C         37.77901        33.07095        -1.31629
C         36.52483        33.77914        -1.42303
C         37.74847        35.91792        -1.23271
C         36.54699        35.19764        -1.40087
C         37.73456        37.35866        -1.12710
C         36.52760        38.09279        -1.08125
C         37.75423        40.21128        -0.95217
C         36.52116        39.49302        -0.88421
C         37.76307        41.65220        -0.89431
C         36.54569        42.32716        -0.53837
C         37.80424        44.46615        -0.41531
C         36.56452        43.71690        -0.26644
C         37.86072        45.79943        -0.06045
C         36.66120        46.46398         0.47497
C         38.05475        48.61843         0.86912
C         36.72677        47.90649         0.84688
C         38.02842        50.09719         0.92307
C         36.80957        50.81558         1.08169
C         38.06940        52.92038         0.96272
C         36.85744        52.22420         1.19286
C         38.09200        54.38318         1.01504
C         36.80468        55.05979         1.02806
C         40.18635        15.93636         0.43240
C         39.02968        16.60105         0.10722
C         40.15001        18.76027         0.17815
C         38.99613        18.03353        -0.06504
C         40.24284        20.16569        -0.26019
C         38.98626        20.93122        -0.40344
C         40.24164        23.10974        -0.46202
C         38.98210        22.32539        -0.46116
C         40.18472        24.55707        -0.16729
C         38.95696        25.19961        -0.27168
C         40.18219        27.43590         0.07265
C         38.87960        26.66074        -0.09550
C         40.20656        28.86309        -0.30349
C         38.99796        29.51094        -0.67247
C         40.24837        31.63355        -0.85292
C         39.02210        30.93228        -0.93068
C         40.29603        33.05826        -1.35581
C         38.99465        33.80724        -1.19895
C         40.23646        35.95142        -1.02517
C         38.99412        35.21180        -1.15131
C         40.22701        37.35837        -1.00131
C         38.96895        38.06669        -1.04236
C         40.21055        40.17838        -1.35191
C         38.95439        39.47476        -1.04867
C         40.17015        41.66296        -1.52474
C         38.94605        42.39259        -1.13259
C         40.18757        44.55509        -1.12179
C         38.99187        43.79950        -0.92933
C         40.24625        45.94268        -0.86818
C         38.97836        46.68083        -0.55382
C         40.45931        48.69387        -0.04429
C         39.25322        47.90655         0.29333
C         40.52270        49.98262         0.72597
C         39.24829        50.78134         0.78388
C         40.53027        52.90776         0.43811
C         39.25085        52.18770         0.67139
C         40.56660        54.36994         0.77043
C         39.29357        55.08895         0.99471
C         40.59328        57.16868         1.17774
C         39.39133        56.51485         1.18392
C         42.59654        16.01149         1.05490
C         41.39028        16.64080         0.74832
C         42.65970        18.87561         0.90251
C         41.32456        18.10451         0.76305
C         42.72636        20.27545         0.47261
C         41.55416        20.90685        -0.14740
C         42.71488        23.14829         0.25951
C         41.56091        22.39621        -0.28050
C         42.64652        24.54020         0.29623
C         41.42136        25.27091         0.06618
C         42.67463        27.41963         0.20614
C         41.44292        26.67954         0.11448
C         42.67295        28.85215         0.02668
C         41.44303        29.55301        -0.27534
C         42.69709        31.68756        -0.46868
C         41.46394        30.96367        -0.54838
C         42.69331        33.12799        -0.58769
C         41.49647        33.82428        -0.86873
C         42.67912        35.97032        -0.60715
C         41.47526        35.23650        -0.86026
C         42.64621        37.38614        -0.57942
C         41.45429        38.09544        -0.82248
C         42.63355        40.29617        -0.76931
C         41.48312        39.52930        -0.97429
C         42.70906        41.70213        -1.11553
C         41.48037        42.38620        -1.57494
C         42.71400        44.61177        -1.32830
C         41.44697        43.88474        -1.49830
C         42.66216        46.00906        -1.29158
C         41.43285        46.69600        -1.04922
C         42.63653        48.91494        -1.38990
C         41.46832        48.14515        -0.81034
C         42.65115        50.45646        -1.64195
C         41.46190        51.25065        -1.23839
C         42.79824        53.21818        -0.78774
C         41.59507        52.36128        -0.44427
C         42.95231        54.47827         0.02832
C         41.79313        55.14312         0.46382
C         43.07922        57.16673         0.84730
C         41.83315        56.50260         0.84526
C         43.81157        16.72022         1.16864
C         45.14980        18.83278         0.90746
C         43.90087        18.10201         0.99420
C         45.14732        20.25653         0.82294
C         43.91843        20.98095         0.60135
C         45.12734        23.11173         0.83043
C         43.92393        22.42849         0.55546
C         45.09044        24.55938         1.11138
C         43.81404        25.30025         0.78431
C         45.12828        27.43436         0.55590
C         43.87444        26.74869         0.50990
C         45.12896        28.85756         0.36415
C         43.89204        29.55489         0.11953
C         45.10927        31.68821         0.00551
C         43.90769        30.99497        -0.10908
C         45.16029        33.12166        -0.31557
C         43.89963        33.87322        -0.40564
C         45.15434        36.03186        -0.18655
C         43.91647        35.27684        -0.39974
C         45.14465        37.44154        -0.10388
C         43.83713        38.12676        -0.13426
C         45.08914        40.39130        -0.00544
C         43.80317        39.63394        -0.15783
C         45.08817        41.84572        -0.38393
C         43.87206        42.45659        -0.95892
C         45.18504        44.56027        -1.20729
C         43.93970        43.87755        -1.23546
C         45.23864        45.96173        -1.61084
C         43.88316        46.76017        -1.58055
C         45.16312        48.84312        -1.91527
C         43.92438        48.20102        -1.44925
C         45.15869        50.37517        -1.98951
C         43.96684        51.13978        -1.58072
C         45.30566        53.13806        -0.94932
C         44.06315        52.43042        -1.05154
C         45.40187        54.41479        -0.34614
C         44.20005        55.13499         0.07854
C         44.24091        56.47934         0.52435
C         47.58872        18.85888         0.86186
C         46.39698        18.16206         0.94303
C         47.60955        20.27097         0.78623
C         46.37538        20.98187         0.81480
C         47.60517        23.14870         0.85953
C         46.36316        22.41603         0.84263
C         47.63024        24.55908         0.90029
C         46.39694        25.33015         1.31083
C         47.58924        27.44863         0.71589
C         46.36119        26.75100         0.76864
C         47.58620        28.88210         0.61677
C         46.35991        29.55883         0.47493
C         47.60938        31.76394         0.48761
C         46.29555        31.04528         0.67030
C         47.61298        33.13219         0.39774
C         46.43305        33.88019        -0.08151
C         47.57410        36.08245         0.19848
C         46.39009        35.35642         0.01810
C         47.58978        37.49939         0.11464
C         46.35004        38.19364         0.00963
C         47.57285        40.34096         0.07829
C         46.37238        39.63854         0.02308
C         47.54618        41.83560         0.03961
C         46.37590        42.54447        -0.50420
C         47.68581        44.61116        -0.93670
C         46.41366        43.89576        -0.83659
C         47.71115        46.02912        -1.29278
C         46.48540        46.74950        -1.49022
C         47.70872        48.87914        -1.75670
C         46.46885        48.13225        -1.72189
C         47.71057        50.28203        -1.91567
C         46.48022        51.06876        -1.97813
C         47.83955        53.11764        -1.18707
C         46.52898        52.53787        -1.51018
C         47.86033        54.35173        -0.49993
C         46.68602        54.99018        -0.13870
C         50.06262        20.33023         0.29890
C         48.84770        21.00711         0.68251
C         50.09471        23.14038         0.85540
C         48.83094        22.40632         0.78148
C         50.09068        24.60304         0.72242
C         48.85887        25.29471         0.79819
C         50.07945        27.44252         0.84112
C         48.84458        26.73533         0.79457
C         50.08164        28.90279         0.80398
C         48.83970        29.61352         0.68930
C         50.08506        31.75123         0.59816
C         48.84760        31.03012         0.63330
C         50.11445        33.17070         0.56479
C         48.84257        33.88923         0.66457
C         50.10811        36.07384         0.27151
C         48.83753        35.39395         0.53944
C         50.08478        37.49603         0.09466
C         48.83910        38.21355         0.12276
C         50.08911        40.32604         0.02721
C         48.84032        39.63704         0.09408
C         50.12359        41.80811         0.13605
C         48.85216        42.59911         0.00011
C         50.16267        44.51806        -1.00971
C         48.86569        43.92349        -0.65875
C         50.19678        46.01155        -1.36300
C         48.92236        46.74388        -1.38239
C         50.21980        48.82590        -1.57378
C         48.95852        48.15728        -1.59047
C         50.31883        50.24893        -1.89802
C         48.95207        51.05115        -2.05685
C         50.26756        53.11549        -1.64080
C         49.00621        52.46431        -1.65480
C         51.23831        20.99070         0.12553
C         52.59545        23.16201         0.09886
C         51.38635        22.37773         0.56626
C         52.58328        24.61151         0.53793
C         51.33503        25.30237         0.67725
C         52.57633        27.40509         1.07740
C         51.30108        26.71935         0.83935
C         52.57159        28.94361         1.05253
C         51.29356        29.62168         0.78794
C         52.54391        31.76477         0.55765
C         51.32403        31.04192         0.62634
C         52.55381        33.17609         0.49716
C         51.31674        33.89783         0.49958
C         52.56455        36.00459         0.14340
C         51.32345        35.33789         0.31853
C         52.59367        37.44842        -0.31092
C         51.29843        38.20457        -0.08268
C         52.58522        40.30051        -0.57833
C         51.30135        39.61238        -0.12250
C         52.65819        41.77315        -0.29424
C         51.41194        42.52317        -0.05388
C         52.59528        44.62317        -0.51086
C         51.41199        43.93487        -0.49938
C         52.63058        46.04311        -0.78626
C         51.44679        46.73738        -1.10475
C         52.65892        48.87713        -1.01302
C         51.43229        48.15547        -1.21460
C         52.66434        50.30947        -1.06761
C         51.50786        51.00832        -1.50127
C         51.46314        52.42195        -1.59696
C         55.02309        23.13661         0.64687
C         53.86691        22.44983         0.46922
C         55.05232        24.56840         0.57348
C         53.83203        25.29573         0.58736
C         55.02789        27.46985         0.79613
C         53.85011        26.73281         0.79178
C         55.03385        28.91627         0.84173
C         53.83636        29.61418         0.78268
C         55.06181        31.79269         0.72483
C         53.83428        31.03327         0.29956
C         55.03160        33.19193         0.68437
C         53.79509        33.90109         0.46911
C         55.05939        36.02885         0.23163
C         53.79003        35.31091         0.29443
C         55.08485        37.42317         0.12909
C         53.78835        38.18806         0.30517
C         55.07048        40.29466        -0.22463
C         53.86145        39.61944        -0.15193
C         55.10431        41.74536        -0.35409
C         53.84539        42.45058        -0.27124
C         55.11042        44.64082        -0.30689
C         53.82646        43.93366         0.04516
C         55.08949        46.02511        -0.47361
C         53.86512        46.75156        -0.64330
C         55.08698        48.90894        -0.46513
C         53.86839        48.17483        -0.73652
C         55.00841        50.33675        -0.38335
C         53.85512        51.00623        -0.68779
C         57.62513        24.62967         0.78100
C         56.34094        25.27697         0.45767
C         57.55862        27.51697         0.84490
C         56.31297        26.80220         0.51848
C         57.53205        28.93676         0.97005
C         56.29557        29.64428         0.85083
C         57.51468        31.76562         1.10805
C         56.29234        31.06331         0.89563
C         57.47403        33.25901         1.34691
C         56.25893        33.94104         0.76989
C         57.57952        35.95401         0.23015
C         56.27929        35.28000         0.43693
C         57.59416        37.42865        -0.07613
C         56.30576        38.16828        -0.00349
C         57.60881        40.20952        -0.57219
C         56.31507        39.55040        -0.13063
C         57.60298        41.74371        -0.49637
C         56.31246        42.46815        -0.36621
C         57.57698        44.62231        -0.13123
C         56.32982        43.89559        -0.31854
C         57.56439        46.03616        -0.10150
C         56.38234        46.77027        -0.67508
C         57.50839        48.88568         0.10876
C         56.30369        48.22586        -0.27505
C         58.75746        25.35495         0.95013
C         59.96686        27.52124         1.19338
C         58.76152        26.80455         0.96303
C         59.96251        28.89678         1.28756
C         58.75568        29.64212         1.18146
C         59.93872        31.83882         1.49372
C         58.72657        31.07922         1.27406
C         59.97294        33.19918         1.37165
C         58.78801        33.95368         1.06635
C         60.02748        36.06907         0.67280
C         58.82096        35.28848         0.69133
C         60.03210        37.42326         0.47715
C         58.84706        38.18285         0.17883
C         59.98531        40.35398         0.42154
C         58.82842        39.56395         0.08093
C         60.02586        41.70435         0.32971
C         58.86608        42.48932        -0.13338
C         59.90702        44.66362         0.60412
C         58.78208        43.93785         0.17739
C         59.87022        46.05001         0.69275
C         58.71149        46.75442         0.30308
C         58.66731        48.19537         0.36258
O         52.57600        28.19147         2.31476
O         24.72467        43.19608         3.12771
O         44.14552        24.91307         2.18567
O         50.27837        44.97391        -2.39771
O         39.29724        27.14751         1.22378
O         27.70397        33.16686         1.62560
O         48.76018        34.74494         1.87206
O         33.19297        35.64130        -2.80718
O         57.69135        36.45388        -1.16143
O         35.36357        36.87214        -2.78365
O         34.86052        48.51679        -0.66880
O         56.37617        26.10149        -0.77155
O         36.67714        46.92174         1.91859
O         39.00588        47.90802         1.72562
O         45.01706        49.56522        -3.19249
O         44.93068        41.40357         1.03976
O         50.99807        22.64710         1.92999
O         29.75116        24.71192        -2.61255
O         49.77436        50.65913        -3.18014
O         58.47781        42.27855        -1.55251
O         30.42943        35.60247        -2.18045
O         40.09227        40.77882        -2.70010
O         50.89582        42.29018         1.31872
O         36.10945        28.78849        -2.73080
O         46.46803        52.16987        -2.93483
O         43.51687        38.90611         1.08438
O         41.13845        22.83897        -1.60697
O         41.73916        18.70624         2.04343
O         48.06866        42.52477         1.23303
O         40.98162        53.35814         1.78111
O         36.01002        31.30836        -2.91093
O         44.51271        46.28084        -2.82503
O         41.51945        43.17514        -2.80623
O         42.33597        49.54912        -2.72866
O         32.39044        41.70713         1.60292
O         27.57948        48.33846        -1.12005
O         41.17792        20.25135        -1.41518
O         41.55199        50.31436         1.29556
O         46.08339        33.42872        -1.45799
O         26.71482        42.02306        -0.48286
O         46.56495        25.50243         2.75522
H         45.65490        25.54147         3.13546
O         52.83226        37.42687        -1.76008
H         52.14993        36.85620        -2.17261
O         57.70783        39.87087        -1.98516
H         58.26531        40.56980        -2.40067
O         35.76239        53.00339         3.15451
H         36.63376        53.40380         3.36143
O         53.51788        38.22792         1.74314
H         54.24075        38.72667         2.17792
O         40.26827        50.71726        -1.62259
H         40.47799        50.01277        -2.28540
O         31.78884        47.81416         2.78094
H         31.16126        47.10213         3.03044
O         52.54791        40.17755        -2.04673
H         52.74104        39.22678        -2.25332
O         30.13544        50.09172         2.84472
H         30.80612        49.48773         3.24653
O         46.02652        31.22312         2.12347
H         45.30218        30.60736         2.36789
O         57.29425        33.39962         2.81154
H         58.02149        32.89845         3.23930
O         53.92772        30.93412        -1.18233
H         54.03955        31.84625        -1.52715
O         38.48722        47.26061        -1.81856
H         38.40786        46.53417        -2.47365
O         40.49842        32.93749        -2.81835
H         39.69563        32.51235        -3.19060
O         30.12863        23.15007         0.63180
H         30.14898        22.25465         1.03050
O         52.51091        23.16082        -1.36982
H         53.30648        23.62244        -1.71146
O         56.60494        46.79427        -2.13926
H         57.47521        47.21992        -2.29347
O         53.72649        44.03420         1.50615
H         52.89910        43.57801         1.77795
O         29.08322        42.45999        -1.51493
H         28.13635        42.59866        -1.75198
O         42.46384        53.79083        -2.12055
H         42.61115        53.09585        -2.79850
H         22.11349        26.68784         0.19999
H         22.12028        29.12809         0.48867
H         22.11086        31.01759         0.47908
H         22.12383        33.43028         0.75876
H         22.19712        35.26867         1.33264
H         22.26421        37.66624         1.75329
H         22.61731        39.24829         2.83987
H         22.88211        41.57654         3.68330
H         22.68049        44.73603         3.17846
H         22.48548        46.98516         2.06579
H         25.35389        23.35170        -0.76801
H         23.28431        24.58244        -0.24769
H         25.53192        49.87918        -0.13255
H         23.53541        48.83177         0.87535
H         26.94165        22.46724        -1.64070
H         27.47954        50.90606        -0.27460
H         29.03631        21.23950        -1.52991
H         29.37752        52.01847         0.76423
H         32.81693        19.08328        -1.05202
H         30.69561        20.28841        -1.07382
H         33.11996        53.94862         1.98057
H         30.96743        52.76906         1.85052
H         34.46117        18.15779        -1.00409
H         34.69614        54.95742         1.19773
H         36.55059        16.96723        -0.65564
H         36.77960        56.13557         0.80003
H         40.19082        14.83760         0.48193
H         38.12376        16.01296        -0.09034
H         40.62684        58.24580         1.39878
H         38.47884        57.08449         1.41025
H         42.62087        14.91425         1.12611
H         43.13007        58.22659         1.13519
H         44.72633        16.13254         1.32806
H         45.19551        57.02065         0.56395
H         48.53174        18.29689         0.88294
H         46.42739        17.06700         1.01876
H         48.82193        54.82642        -0.26128
H         46.76428        55.96012         0.36876
H         50.00086        19.27515        -0.00130
H         50.29693        54.21206        -1.57689
H         52.08242        20.49662        -0.37606
H         52.39132        53.00224        -1.51149
H         55.95605        22.58627         0.83169
H         53.86670        21.35112         0.50013
H         55.90076        50.91868        -0.11855
H         53.85546        52.10332        -0.65199
H         57.66475        23.53671         0.88918
H         57.50952        49.97522         0.25145
H         59.70776        24.84101         1.15826
H         60.91080        26.96546         1.28734
H         60.91667        29.41583         1.44730
H         60.87749        31.30665         1.69520
H         60.94298        33.71076         1.44155
H         60.98423        35.57447         0.88925
H         60.99694        37.94596         0.52945
H         60.87410        39.83588         0.80846
H         60.93874        42.23195         0.63714
H         60.83968        44.14247         0.85747
H         60.75703        46.60631         1.02731
H         59.57188        48.73504         0.67704
