         404
 CSIRO Nanostructure Databank - Neutral Graphene Oxide Data Set
C          1.28442         3.37532         0.53658
C          0.04114         4.05023         0.45701
C          1.17312         6.23785         0.57006
C         -0.04148         5.41978         0.48529
C          1.12322         7.74976         0.38158
C         -0.11505         8.51424         0.11296
C          1.16997        10.60829        -0.14760
C         -0.07149         9.85029        -0.11409
C          1.18656        12.04670        -0.20105
C          0.01278        12.80871         0.03306
C          1.26828        14.89024        -0.20544
C          0.08289        14.18370         0.11816
C          1.27149        16.34535         0.05605
C          0.62931        16.89396         1.19869
C          1.42430        19.14985         0.65724
C          0.68310        18.25361         1.46808
C          1.50307        20.57320         0.91393
C          0.77354        21.22440         1.95099
C          1.59263        23.44665         1.32954
C          0.82522        22.60787         2.14900
C          1.64330        24.89324         1.42660
C          0.62003        25.63171         2.07289
C          1.70117        27.74916         1.49000
C          0.64996        27.01320         2.09445
C          1.70450        29.19850         1.47673
C          0.70438        29.93457         2.15442
C          1.67579        32.05481         1.44209
C          0.70209        31.31521         2.15784
C          1.64297        33.51100         1.43980
C          0.69488        34.24333         2.12631
C          1.74034        36.39733         1.59433
C          0.68317        35.66583         2.12619
C          1.81984        37.83309         1.70482
C          3.74689         3.42165         0.67755
C          2.49815         4.08618         0.56245
C          3.66874         6.22730         0.36163
C          2.47574         5.52920         0.45669
C          3.67202         7.66076        -0.00482
C          2.38177         8.42760        -0.08485
C          3.62081        10.61395        -0.18107
C          2.38907         9.91630        -0.11828
C          3.64710        12.00392        -0.43121
C          2.41394        12.73932        -0.44940
C          3.63879        14.80360        -1.13220
C          2.41553        14.16702        -0.61565
C          3.63421        16.04524        -1.73941
C          1.93992        17.23376        -0.77860
C          2.97912        19.44282        -1.25655
C          2.10630        18.61830        -0.48682
C          3.13862        20.81251        -0.95548
C          2.32785        21.36414         0.07946
C          3.60361        23.54360        -0.28451
C          2.35693        22.81231         0.25218
C          3.88023        24.86366         0.31981
C          2.72393        25.61618         0.85514
C          3.88698        27.74883         0.29364
C          2.77151        27.02947         0.88510
C          3.84019        29.17347         0.20617
C          2.72182        29.91337         0.77651
C          3.68641        32.08666        -0.04640
C          2.67154        31.33431         0.73137
C          3.84487        33.52681         0.18451
C          2.58524        34.27170         0.53284
C          4.00939        36.34480         0.65517
C          2.83077        35.69294         0.96719
C          4.12125        37.78382         0.87331
C          2.94449        38.49933         1.32453
C          6.20285         3.46332         0.89146
C          4.95967         4.12928         0.73013
C          6.11886         6.31437         0.58195
C          4.93515         5.57061         0.54576
C          6.12787         7.73382         0.31846
C          4.93310         8.40575         0.08845
C          6.17467        10.61379        -0.10692
C          4.87977         9.88060         0.06873
C          6.13552        12.01113        -0.57715
C          4.90556        12.69721        -0.64774
C          6.12014        14.68995        -1.38100
C          4.89893        14.06665        -1.06170
C          6.15633        16.03924        -1.96960
C          4.84599        16.76441        -2.19409
C          6.05043        18.97256        -2.14106
C          4.87025        18.25702        -2.20831
C          6.11599        20.42288        -2.13891
C          4.23011        21.59049        -1.50830
C          5.94581        23.44264        -1.30233
C          4.66334        22.79453        -0.98170
C          6.02732        24.81570        -1.09513
C          5.07353        25.57253        -0.23938
C          6.10315        27.75901        -0.75114
C          5.00931        27.05260        -0.24563
C          6.11723        29.17265        -0.72566
C          4.95237        29.86673        -0.33425
C          6.15799        32.05950        -0.76733
C          4.90338        31.32134        -0.56173
C          6.18436        33.46554        -0.62827
C          5.01577        34.19301        -0.15672
C          6.35836        36.27299        -0.09275
C          5.14549        35.62025         0.10226
C          6.58253        37.65207         0.48744
C          5.31351        38.42961         0.66764
C          8.65812         3.54910         1.15741
C          7.41441         4.17222         1.00017
C          8.67098         6.43458         0.98214
C          7.36303         5.65058         1.01274
C          8.59918         7.81910         0.46493
C          7.40616         8.43498         0.20669
C          8.65902        10.57197        -0.38532
C          7.38039         9.78176        -0.48425
C          8.62509        11.95619        -0.68738
C          7.37006        12.65538        -0.83581
C          8.60495        14.74492        -1.30736
C          7.36777        14.03100        -1.19011
C          8.59513        16.16567        -1.56627
C          7.39734        16.81290        -1.85949
C          8.57724        19.07586        -1.87492
C          7.34825        18.25616        -2.14568
C          8.48741        20.53330        -1.59182
C          7.21210        21.20890        -1.76738
C          8.40917        23.35620        -1.58873
C          7.18344        22.67851        -1.63188
C          8.46795        24.82873        -1.95459
C          7.17909        25.57900        -1.62601
C          8.53538        27.74863        -1.39439
C          7.23176        27.05488        -1.40382
C          8.55133        29.14038        -1.24768
C          7.33121        29.88569        -1.05458
C          8.59839        31.97938        -1.18543
C          7.34973        31.29495        -1.02004
C          8.55849        33.44805        -1.38300
C          7.38188        34.20098        -0.91267
C          8.72212        36.31234        -0.88782
C          7.48555        35.57788        -0.64599
C          8.78239        37.76639        -0.70584
C          7.68996        38.42048        -0.17081
C         11.11546         3.58753         1.22890
C          9.89309         4.26186         1.09128
C         11.15666         6.29961         0.53312
C          9.93897         5.68064         0.86040
C         11.19180         7.78725         0.42307
C          9.88204         8.54864         0.37455
C         11.11125        10.59480        -0.35683
C          9.87679         9.92178        -0.15912
C         11.09096        11.98238        -0.66628
C          9.84882        12.67189        -0.79951
C         11.07051        14.79705        -1.11201
C          9.83197        14.07547        -1.08431
C         11.05456        16.22837        -1.27891
C          9.83475        16.90250        -1.50509
C         10.98171        19.06683        -1.44945
C          9.81809        18.33799        -1.54898
C         10.91358        20.48739        -1.08035
C          9.64392        21.22626        -1.29018
C         10.88582        23.35513        -1.23040
C          9.67239        22.67521        -1.35803
C         10.96209        24.81231        -1.47591
C          9.71739        25.58218        -1.50817
C         11.00362        27.69997        -1.22454
C          9.75002        26.98012        -1.42408
C         11.01971        29.13000        -1.22800
C          9.81556        29.84145        -1.24707
C         11.06628        31.99067        -0.99353
C          9.79413        31.27542        -1.22001
C         11.09548        33.48670        -1.17667
C          9.84093        34.19947        -1.56242
C         11.07968        36.37123        -1.66534
C          9.84918        35.65745        -1.33443
C         11.17388        37.81352        -1.40803
C          9.99379        38.47076        -1.02027
C         13.50460         3.47530         1.42951
C         12.36864         4.19515         0.96340
C         13.57382         6.26498         0.01674
C         12.38160         5.56388         0.44032
C         13.60678         7.72009        -0.22122
C         12.39399         8.47544        -0.08871
C         13.54144        10.55476        -0.78706
C         12.35382         9.85882        -0.37123
C         13.54510        11.94657        -0.90882
C         12.32359        12.69469        -0.81436
C         13.54252        14.87784        -0.85628
C         12.29061        14.10728        -0.96126
C         13.52319        16.31443        -1.18157
C         12.29192        16.95315        -1.33590
C         13.60671        19.19322        -1.36065
C         12.27343        18.39394        -1.57275
C         13.50427        20.58316        -0.91439
C         12.17096        21.21136        -0.71889
C         13.41709        23.41140        -0.59857
C         12.06898        22.72060        -0.50560
C         13.43217        24.81534        -0.58252
C         12.26092        25.55894        -1.11228
C         13.35396        27.71920        -0.46131
C         12.18705        27.00580        -0.92466
C         13.45438        29.07867        -0.59867
C         12.36713        29.81622        -1.34799
C         13.51439        31.99415        -0.78920
C         12.35362        31.28781        -1.00202
C         13.54598        33.45052        -0.88371
C         12.39094        34.14167        -1.28597
C         13.66855        36.28171        -1.40669
C         12.44748        35.54343        -1.66352
C         13.66361        37.71585        -1.53579
C         12.43235        38.43999        -1.54816
C         16.01072         3.79959         1.66117
C         14.82357         3.77201         0.98285
C         16.05743         6.25429        -0.31898
C         14.78219         5.60792        -0.22510
C         16.03363         7.58588        -1.03068
C         14.77316         8.34768        -0.65575
C         16.08863        10.47182        -1.32984
C         14.75559         9.76267        -1.06344
C         16.12444        11.96874        -1.41350
C         14.78969        12.68374        -1.22296
C         16.06632        14.85338        -1.27019
C         14.85482        14.12389        -0.85111
C         15.91316        16.18158        -1.54764
C         14.76245        17.01758        -1.29825
C         16.02047        19.16272        -0.72635
C         14.85479        18.43648        -1.15700
C         15.91248        20.54630        -0.39193
C         14.65897        21.25423        -0.51931
C         15.78643        23.39519         0.06076
C         14.60603        22.69507        -0.31079
C         15.74640        24.81099         0.22985
C         14.56504        25.50953        -0.10884
C         15.67762        27.69904         0.64631
C         14.46075        26.95863         0.16548
C         15.79714        29.16913         0.45490
C         14.73095        29.79065        -0.35162
C         15.92462        32.00846         0.07117
C         14.79643        31.27181        -0.54331
C         16.06871        33.40849        -0.50852
C         14.77696        34.15056        -0.79347
C         16.04904        36.30540        -0.81510
C         14.81981        35.56313        -0.99854
C         16.09782        37.70721        -1.13376
C         14.90452        38.39003        -1.48312
C         18.44048         3.62620         0.97353
C         17.25790         4.54128         1.23496
C         18.48587         6.25858        -0.09863
C         17.20314         5.64279         0.16157
C         18.54396         7.61038        -0.67286
C         17.30143         8.38662        -0.82447
C         18.53875        10.53004        -0.69227
C         17.33980         9.75769        -0.96434
C         18.49110        11.98004        -0.66852
C         17.35985        12.69886        -1.09032
C         18.51994        14.91831        -0.56115
C         17.44451        14.18954        -1.41402
C         18.54855        16.33944        -0.33512
C         17.63788        17.24894        -0.95742
C         18.27964        19.12072         0.38521
C         17.28499        18.49658        -0.43754
C         18.20121        20.52802         0.59963
C         17.03686        21.25340         0.17095
C         18.12616        23.35678         0.88736
C         16.98425        22.65733         0.37237
C         18.10337        24.78488         1.01902
C         16.92025        25.52808         0.69119
C         18.02938        27.64505         1.35726
C         16.91739        26.92773         0.82998
C         17.91370        29.06058         1.63771
C         16.84867        29.88384         1.00812
C         17.98899        32.21182         1.38660
C         16.91539        31.37404         0.83121
C         18.04650        33.67114         1.09555
C         16.97516        34.30587         0.28950
C         18.33860        36.40126         0.06556
C         17.15567        35.68548        -0.21955
C         18.43958        37.76352        -0.38024
C         17.32204        38.39250        -0.96692
C         19.60623         4.17560         0.57521
C         20.91567         6.30540         0.28627
C         19.67189         5.58944         0.21618
C         20.98369         7.65628         0.10096
C         19.86767         8.39392        -0.50527
C         20.89524        10.62853        -0.05666
C         19.76259         9.87217        -0.41334
C         20.82812        12.01467         0.06376
C         19.64342        12.70895        -0.21093
C         20.49420        14.76687         0.88306
C         19.54849        14.14932         0.01551
C         20.43868        16.10841         1.19093
C         19.46493        16.93817         0.58522
C         20.43214        19.05425         1.52164
C         19.39839        18.36380         0.83181
C         20.39078        20.42187         1.68302
C         19.29753        21.19759         1.20409
C         20.42226        23.35530         1.74143
C         19.28452        22.63438         1.28842
C         20.40142        24.72528         1.85126
C         19.23522        25.47339         1.52762
C         20.17763        27.52888         2.54331
C         19.17426        26.89545         1.77060
C         19.97246        28.81489         2.99487
C         18.84584        29.54424         2.56313
C         19.93236        32.68710         2.85643
C         18.85320        31.87714         2.43843
C         20.19633        33.91628         2.25013
C         19.26437        34.46533         1.36509
C         20.58329        36.55001         1.00209
C         19.41237        35.79525         0.80825
C         20.70481        37.85913         0.50440
C         19.65652        38.47132        -0.16064
O          5.65144        10.43680         1.23124
O         11.95739        25.17242        -2.50239
O         14.27217        14.53182         0.41307
O          6.81205        26.49614        -2.72969
O         14.61202        27.29129         1.60009
O         11.71885        35.91282        -2.87642
O         13.04383        18.92212        -2.69592
O         19.46665         7.81527        -1.78588
O         10.94133        32.89152         0.17481
O          2.44271        16.73713        -1.99089
O          3.79996        31.70624        -1.45939
O          9.09565        33.77923        -2.73999
O          2.95282         7.86581        -1.31336
O         14.83232         4.22833        -0.35723
O         16.77731        34.30515         1.72851
O         17.00867        16.83930        -2.13943
O          8.18988        18.72776        -3.26343
O          1.18515         7.19448         1.73091
O         11.40499        20.52834         0.36009
O          2.34415        23.56580        -1.01619
O         18.66387        30.75030         3.22662
O          4.93197        21.01901        -2.56323
O          7.94661         6.22742         2.23658
O          5.53738        16.12268        -3.32465
O         15.33552         9.90424        -2.44181
O         15.23530        30.38485        -1.66018
O          5.08020        24.97435         1.14057
O         10.65157         8.44125         1.63085
O          3.63249        18.89171        -2.36257
O         15.35763        12.48415        -2.55007
O          8.59942        24.79804        -3.40510
H          8.11351        25.58748        -3.74709
O         17.61186         5.29136         2.45286
H         18.51774         5.64823         2.32922
O          1.85826        34.37301        -0.75254
H          2.49401        34.68909        -1.42959
O         11.72822        22.95462         0.90241
H         11.33235        22.10968         1.23314
O          7.07357        37.39970         1.87256
H          6.34779        36.94879         2.35546
O          7.18824         9.50330        -1.91227
H          8.00276         9.08239        -2.25858
O         12.73400        29.75263        -2.76742
H         13.69679        29.97275        -2.81356
O         15.93318         7.27780        -2.45345
H         15.81060         8.14523        -2.91426
O         16.74731        33.21307        -1.79281
H         16.28927        32.48484        -2.26680
O         17.87135        14.28601        -2.79754
H         17.77712        15.23038        -3.05991
H          1.30098         2.27751         0.58576
H         -0.88149         3.45400         0.41142
H         -1.02205         5.91509         0.49376
H         -1.08488         8.00001         0.17321
H         -1.01666        10.38723        -0.27679
H         -0.94196        12.30606         0.23562
H         -0.81375        14.75482         0.39692
H          0.08258        16.22947         1.88214
H          0.15726        18.63605         2.35314
H          0.13780        20.62683         2.61773
H          0.23868        23.04292         2.97090
H         -0.22634        25.10102         2.53033
H         -0.18209        27.54034         2.57889
H         -0.08566        29.41276         2.70938
H         -0.09101        31.83570         2.70980
H         -0.08403        33.73725         2.71383
H         -0.13652        36.19014         2.63803
H          0.95472        38.37964         2.10785
H          3.75946         2.32462         0.76184
H          3.00552        39.59341         1.41789
H          6.21652         2.36444         0.94629
H          5.38563        39.51384         0.84453
H          8.69836         2.45378         1.25410
H          7.72540        39.51043        -0.02090
H         11.10519         2.53410         1.54483
H         10.01848        39.55805        -0.85347
H         13.34180         2.69956         2.19278
H         12.48443        39.53654        -1.47514
H         16.02910         3.44144         2.70091
H         14.93251        39.48095        -1.62098
H         18.37377         2.56156         1.23847
H         17.38630        39.45657        -1.23971
H         20.52147         3.57108         0.48765
H         21.79939         5.76332         0.65427
H         21.90705         8.18892         0.36839
H         21.85457        10.12897         0.13039
H         21.73728        12.55800         0.35285
H         21.25920        14.14986         1.37269
H         21.15330        16.52390         1.91362
H         21.30279        18.50143         1.89940
H         21.22780        20.91402         2.19527
H         21.34366        22.81941         2.00354
H         21.31017        25.23697         2.19311
H         21.06750        26.98031         2.87510
H         20.67337        29.28847         3.69408
H         20.58044        32.31554         3.66035
H         21.09765        34.47143         2.54166
H         21.43343        36.12163         1.55010
H         21.64246        38.40808         0.67028
H         19.74956        39.50759        -0.51564
