         280
 CSIRO Nanostructure Databank - Neutral Graphene Oxide Data Set
C         30.51900        31.99558        -1.60802
C         30.35126        33.05873        -0.99813
C         30.39925        36.05400         0.18212
C         30.26602        37.26132         0.43216
C         30.38667        40.42606         0.25667
C         30.19620        41.71337         0.39448
C         32.72877        29.03312        -0.98104
C         31.73815        29.68582        -1.33118
C         32.74740        31.72429        -0.71196
C         31.73485        31.14879        -1.79120
C         32.35933        32.74703         0.10512
C         31.28492        33.73036        -0.11503
C         32.66014        35.77754         1.00711
C         31.39009        35.04364         0.27907
C         32.70042        37.35639         0.83191
C         31.41870        38.15311         0.69262
C         32.74332        40.40507         0.19359
C         31.41557        39.56589         0.28066
C         32.64923        41.70995         1.03828
C         31.23095        42.47471         0.87287
C         32.47821        44.57026         1.12532
C         31.45324        43.83640         1.12050
C         35.37001        27.32004        -0.06675
C         35.25966        28.74575        -0.21803
C         34.10640        29.48251        -0.72442
C         35.29729        31.62865         0.09725
C         34.08687        31.04398        -0.54213
C         35.36824        33.03871         0.46817
C         34.16482        33.81450         0.74078
C         35.24872        35.96694         0.87703
C         33.99125        35.16201         0.60256
C         35.26533        37.44014         0.50212
C         33.93554        38.10714         0.26001
C         35.22920        40.28606         0.98069
C         33.94757        39.58595         0.57371
C         35.22104        41.83151         0.71682
C         33.90407        42.61062         0.79038
C         34.56260        44.84440        -0.25511
C         33.69383        44.11220         0.49809
C         35.14326        46.15562        -0.21741
C         37.81364        27.15294        -0.13806
C         36.47529        26.72149        -0.06959
C         37.81008        28.66821         0.21188
C         36.47710        29.42630        -0.01117
C         37.80106        31.56469         0.16553
C         36.48399        30.86119         0.09293
C         37.83563        33.05199         0.40836
C         36.54625        33.73951         0.58153
C         37.75547        36.00590         0.66046
C         36.47572        35.23894         0.30149
C         37.72455        37.39975         0.01544
C         36.44129        38.14487         0.39180
C         37.68614        40.27806         0.31786
C         36.49083        39.60141         0.44435
C         37.74683        41.73951         0.36029
C         36.51407        42.42418         0.23693
C         37.70919        44.54932        -0.14856
C         36.56527        43.72436        -0.28462
C         37.67224        46.08950        -0.07273
C         36.29589        46.55034        -0.45243
C         40.29668        24.43942        -0.12692
C         39.18843        25.04062        -0.29890
C         40.30973        27.14363        -0.62045
C         38.99011        26.44221        -0.32498
C         40.28142        28.64401        -0.61062
C         38.93294        29.42256        -0.54269
C         40.19237        31.11443         0.78705
C         39.04369        30.73663         0.19573
C         40.22565        33.31926         1.17512
C         39.04777        33.84572         0.75099
C         40.27732        36.01231         0.80827
C         39.04669        35.26110         0.25132
C         40.25434        37.46275         0.34819
C         39.01776        38.13688         0.22920
C         40.21518        40.29524         0.33562
C         38.95065        39.58986        -0.17948
C         40.26389        41.79544        -0.03903
C         38.94984        42.48722         0.25348
C         40.20928        44.69765         0.22858
C         38.92654        43.90307         0.16591
C         40.18334        46.13349        -0.26518
C         38.86572        46.65768        -0.79444
C         40.16043        48.44688        -1.82608
C         39.08778        47.82937        -1.44015
C         42.86334        24.42497         0.32507
C         41.60314        24.88353        -0.07321
C         42.73680        27.21270         0.23828
C         41.69076        26.40662        -0.58995
C         42.86028        28.66313        -0.18618
C         41.59303        29.44854        -0.49108
C         42.71062        31.65688         0.25051
C         41.56168        30.56975         0.57636
C         42.78836        33.01044         1.07190
C         41.53733        33.89460         0.90200
C         42.82545        35.98297         0.60315
C         41.54809        35.21244         0.55560
C         42.73301        37.33839        -0.14336
C         41.48192        38.12303         0.19931
C         42.74109        40.36170         0.13960
C         41.48086        39.57891        -0.17997
C         42.75027        41.71927         0.15104
C         41.51147        42.47102         0.58373
C         42.81843        44.63401        -0.13558
C         41.54397        43.98786         0.32288
C         42.86355        46.17473        -0.25850
C         41.48472        46.85954        -0.54853
C         42.74734        48.50872        -1.81395
C         41.43143        48.11853        -1.44566
C         43.91194        25.13849         0.35845
C         45.30176        27.24550         0.18240
C         44.13082        26.52830         0.28017
C         45.31412        28.71323        -0.01730
C         44.01201        29.38439        -0.02238
C         45.27214        31.64189         0.01728
C         44.04983        30.85185         0.40976
C         45.27080        33.01977         0.28583
C         44.06454        33.71344         0.58457
C         45.30208        35.89239        -0.02607
C         44.02492        35.14321         0.20908
C         45.28963        37.40764        -0.04117
C         43.99039        38.11362         0.22546
C         45.29456        40.32288         0.38080
C         44.00035        39.60313         0.30882
C         45.25357        41.84177         0.45517
C         44.01963        42.41111        -0.28340
C         45.30379        44.58435        -0.44681
C         43.99128        43.92779        -0.22932
C         45.28326        45.95033        -0.84644
C         43.96960        46.50547        -1.31377
C         43.85319        47.98842        -1.56759
C         47.69170        27.33306        -0.25360
C         46.63876        26.75072         0.05413
C         47.66153        28.63943        -1.00307
C         46.45183        29.40464        -0.37673
C         47.81083        31.57810        -0.22100
C         46.44208        30.90888        -0.63192
C         47.70818        33.14270        -0.43724
C         46.64387        33.71846         0.55246
C         47.80824        36.04212        -0.00099
C         46.57935        35.30140         0.52928
C         47.82679        37.47086         0.40794
C         46.54895        38.18348         0.20121
C         47.73878        40.31535         0.83198
C         46.46510        39.63199         0.51243
C         47.78804        41.82695         0.53504
C         46.56076        42.38542        -0.17418
C         47.81207        44.51350        -0.44101
C         46.54661        43.89403        -0.27893
C         47.67822        45.87964        -0.75255
C         46.57349        46.47395        -0.92667
C         50.26473        28.85174        -0.73319
C         48.96231        29.41739        -1.05723
C         50.34805        31.55516        -0.43833
C         49.04719        30.93368        -0.85487
C         50.37458        33.05604        -0.46827
C         49.09170        33.83784        -0.42155
C         50.34046        36.06996         0.22752
C         49.11587        35.34594        -0.21897
C         50.25059        37.34912         0.75383
C         49.00286        38.12215         0.71752
C         50.17583        40.32009         1.07141
C         49.00951        39.57819         0.89563
C         50.23523        41.74762         0.75625
C         49.09091        42.41403         0.27445
C         50.36115        44.42079        -0.03784
C         49.10401        43.72517        -0.53852
C         51.34908        29.40260        -0.47747
C         52.61913        31.63760         0.16142
C         51.50154        30.80575        -0.20274
C         52.70400        32.86898         0.25479
C         51.67912        33.83617        -0.17639
C         52.66775        36.06802         0.85718
C         51.64508        35.30060         0.13780
C         52.59945        37.20363         1.32665
C         51.40738        38.05057         1.42701
C         52.56122        40.43215         1.57840
C         51.38737        39.56073         1.54490
C         52.58629        41.59968         1.12718
C         51.52758        42.46238         0.77989
C         51.38382        43.78317         0.29806
O         46.01375        37.93950        -1.18637
O         44.60956        35.32483        -1.16322
O         49.76296        33.54469        -1.70306
O         40.94273        44.66210         1.49331
O         37.94566        32.51734        -0.99141
O         47.60057        41.32958         1.89070
O         34.47860        30.38524        -1.80355
O         48.99562        30.34637        -2.18333
O         48.34123        35.91501        -1.34624
O         40.18521        32.07517         1.80977
O         40.76974        47.07948         0.70444
O         33.12076        33.02877         1.23211
O         51.99392        34.80806        -1.18041
O         40.25979        27.89311        -1.87580
O         32.07183        37.98568         1.99278
O         51.10949        38.69118         2.67210
O         46.87803        33.34391         1.87044
O         35.43446        44.05384        -1.04188
O         43.88391        38.72303         1.53268
O         34.79359        42.52160         1.95018
O         35.28401        35.95717         2.34462
H         34.35069        35.94948         2.67921
O         42.60492        32.19257        -1.06303
H         42.63788        31.46954        -1.73317
O         40.30734        36.07305         2.26325
H         39.44673        36.45219         2.57564
O         42.21065        27.23949         1.57808
H         42.40872        28.11466         1.99107
O         45.13071        42.29028         1.80733
H         45.87250        41.90447         2.33156
O         47.18130        33.41451        -1.75507
H         47.94546        33.57616        -2.35755
O         44.37150        30.66227         1.82571
H         44.22865        31.51561         2.30710
O         42.69695        37.12542        -1.57681
H         43.44330        36.51099        -1.81364
O         46.54605        35.74487         1.90565
H         46.66971        34.89898         2.43815
O         49.29653        43.38369        -1.90987
H         49.14595        44.18138        -2.45870
O         33.72138        38.02123        -1.21291
H         34.57485        37.77030        -1.63170
O         36.26972        35.25134        -1.12702
H         37.15237        35.19963        -1.56538
O         32.92707        40.80210        -1.18309
H         33.07557        39.97696        -1.70197
O         37.62188        37.29342        -1.43669
H         37.93423        38.15867        -1.81084
O         40.44094        41.95559        -1.46411
H         39.74788        41.42095        -1.91600
O         42.90173        32.73459         2.48699
H         43.01484        33.59068         2.95509
O         43.32057        46.69184         0.99075
H         42.54012        46.73133         1.59110
O         41.50270        42.30338         2.02244
H         41.13235        43.13420         2.41232
O         43.04038        36.25402         2.01117
H         42.17278        36.52603         2.40186
O         32.49578        35.53934         2.40891
H         31.92636        36.26661         2.76204
O         32.65794        41.30684         2.40684
H         32.75549        42.10643         2.96699
O         40.13329        40.11726         1.75557
H         40.76969        40.73981         2.19193
O         41.46465        39.55904        -1.65424
H         42.04110        38.80755        -1.94913
O         37.81345        36.17916         2.08635
H         36.92700        36.43694         2.44126
O         47.27284        28.35629        -2.34354
H         47.54796        29.12206        -2.89831
O         38.86945        39.66607        -1.64278
H         39.77706        39.41792        -1.98004
O         32.22699        31.21407        -3.08260
H         33.12068        30.79263        -3.08880
O         48.05472        31.24001         1.14934
H         47.55779        31.89629         1.73370
O         35.30956        40.09118         2.42318
H         34.55772        40.60031         2.81269
O         46.68498        41.91928        -1.55045
H         46.58096        40.94200        -1.56833
O         39.14184        35.21995        -1.19261
H         39.10522        34.28193        -1.48415
O         38.14449        28.73226         1.61383
H         37.44947        28.26574         2.12452
O         46.21110        31.03060        -2.05570
H         46.37263        31.98328        -2.29362
O         41.73622        29.98864        -1.82914
H         41.57843        29.23311        -2.44397
O         37.86749        46.38760         1.31825
H         38.22643        47.29530         1.40783
O         38.45393        29.62466        -1.87087
H         39.08072        30.20142        -2.35338
O         43.61216        45.82653        -2.52008
H         44.29538        46.00060        -3.20007
O         44.09827        42.08059        -1.69364
H         44.94614        42.43127        -2.05563
O         41.91054        29.95845         1.84029
H         41.78960        30.64497         2.53516
O         42.19204        26.33586        -1.91547
H         41.46984        26.08291        -2.52751
