         620
 CSIRO Nanostructure Databank - Neutral Graphene Oxide Data Set
C         23.15893        27.28638         0.60316
C         23.14015        28.65651         0.66710
C         23.13294        31.58668         0.87262
C         23.07677        32.93931         0.92528
C         23.06304        35.92110         1.00962
C         23.07691        37.30217         1.14037
C         23.05670        40.21135         1.17992
C         23.04410        41.59303         1.15416
C         22.98906        44.51800         0.92648
C         22.99080        45.92096         0.98920
C         25.51187        24.48371        -0.14379
C         24.36518        25.16242         0.19247
C         25.51170        27.31334        -0.10826
C         24.34306        26.58569         0.22609
C         25.48610        28.75096        -0.05176
C         24.30040        29.42898         0.35070
C         25.45319        31.57978         0.03803
C         24.28964        30.86478         0.38017
C         25.41022        33.05177        -0.07229
C         24.13972        33.77088         0.34411
C         25.44505        35.91883         0.47500
C         24.22211        35.22030         0.64556
C         25.46257        37.33891         0.62471
C         24.25850        38.03831         0.91827
C         25.44448        40.21484         0.68600
C         24.24748        39.48995         0.94321
C         25.41045        41.63199         0.60344
C         24.21140        42.33000         0.84503
C         25.42494        44.50745         0.85630
C         24.18256        43.79558         0.85719
C         25.43151        45.92311         1.02651
C         24.18785        46.63225         1.05435
C         25.36022        48.77907         1.11588
C         24.20879        48.08589         1.01048
C         27.96656        23.06534        -0.90354
C         27.92703        24.48177        -0.81009
C         26.71225        25.18020        -0.47047
C         27.89903        27.31754        -0.79563
C         26.70878        26.60100        -0.45744
C         27.81206        28.78259        -0.94302
C         26.64322        29.49935        -0.40703
C         27.88605        31.66650        -0.52842
C         26.65754        30.90339        -0.30764
C         27.87856        33.11113        -0.30007
C         26.68156        33.80751        -0.05726
C         27.91050        35.93041         0.17145
C         26.67378        35.21060         0.18280
C         27.92584        37.37014         0.33653
C         26.69903        38.07187         0.49785
C         27.92404        40.21477         0.52450
C         26.69210        39.49497         0.55195
C         27.92702        41.63868         0.47447
C         26.64495        42.38376         0.17285
C         27.84692        44.53382         0.60178
C         26.65455        43.81999         0.65350
C         27.85148        45.94531         0.79297
C         26.66664        46.63606         1.04563
C         27.89263        48.88516         1.14843
C         26.64987        48.08847         1.49441
C         27.96847        50.23453         1.32217
C         30.36179        23.08765        -1.37003
C         29.13755        22.39243        -1.17174
C         30.32707        24.49953        -1.34384
C         29.12718        25.20974        -1.05546
C         30.35014        27.40788        -1.17700
C         29.10749        26.65496        -1.05037
C         30.36587        28.82882        -1.10312
C         29.09097        29.57478        -1.14522
C         30.32209        31.78109        -1.18175
C         29.06576        31.02076        -0.84497
C         30.34371        33.16222        -0.58026
C         29.11801        33.83280        -0.30401
C         30.40107        35.98712        -0.22868
C         29.11502        35.23034        -0.03535
C         30.40841        37.40050         0.28264
C         29.16393        38.08829         0.36430
C         30.40010        40.22973         0.51441
C         29.16844        39.51130         0.50221
C         30.38698        41.65985         0.51478
C         29.13068        42.33937         0.46329
C         30.36748        44.49386         0.60561
C         29.09463        43.81737         0.12692
C         30.40315        45.96890         0.77765
C         29.11446        46.70092         0.58144
C         30.45202        48.83775         1.08796
C         29.12987        48.17762         0.73487
C         30.37950        50.32514         0.79566
C         29.17460        50.95596         1.01419
C         32.82890        20.23125        -1.37512
C         31.65316        20.92748        -1.44807
C         32.85269        23.03929        -1.47269
C         31.62487        22.36078        -1.46924
C         32.87927        24.50483        -1.63302
C         31.55405        25.26609        -1.60729
C         32.81697        27.37940        -1.17204
C         31.57778        26.70675        -1.29534
C         32.81567        28.79153        -0.95491
C         31.58504        29.53894        -0.98436
C         32.77127        31.67601        -0.68004
C         31.58464        30.98515        -0.90400
C         32.81770        33.09429        -0.44192
C         31.58354        33.81989        -0.33470
C         32.87439        35.78386         0.48719
C         31.62017        35.16539         0.07511
C         32.89317        37.36190         0.60598
C         31.62081        38.08916         0.40875
C         32.89730        40.19515         0.54740
C         31.64682        39.51713         0.48574
C         32.91268        41.68157         0.84032
C         31.62281        42.38393         0.49868
C         32.86008        44.51655         0.28879
C         31.64411        43.77562         0.43919
C         32.85899        45.96526         0.24590
C         31.67645        46.69261         0.54617
C         32.82702        48.80710         0.16615
C         31.66159        48.10240         0.52504
C         32.74402        50.26624        -0.05117
C         31.56916        51.03285         0.39525
C         32.84536        53.12043         0.20607
C         31.63434        52.42514         0.36478
C         35.33770        18.73303        -0.88348
C         35.28938        20.16099        -1.09933
C         34.10176        20.88936        -1.31681
C         35.30458        23.08132        -1.30276
C         34.10260        22.33985        -1.39024
C         35.30923        24.51106        -1.14823
C         34.10454        25.24139        -1.28641
C         35.29698        27.35202        -0.92058
C         34.07190        26.65428        -1.14356
C         35.28493        28.77385        -0.74293
C         34.04972        29.45403        -0.71707
C         35.31189        31.63788        -0.42268
C         33.99760        30.89002        -0.42811
C         35.18365        33.04747        -0.92862
C         34.05632        33.80799        -0.31118
C         35.40267        35.85153         0.55132
C         34.14369        35.09975         0.21347
C         35.40981        37.35123         0.43323
C         34.16802        38.07713         0.45201
C         35.37078        40.28644         0.83258
C         34.11909        39.49552         0.48599
C         35.36385        41.69820         0.24270
C         34.13797        42.39484         0.28447
C         35.22039        44.52731        -0.46745
C         34.05859        43.79359         0.05831
C         35.27265        45.99579        -0.35119
C         34.06813        46.69107        -0.03642
C         35.28933        48.84521        -0.27387
C         34.04971        48.12297        -0.07905
C         35.32147        50.26689        -0.20988
C         34.06157        51.02820        -0.25354
C         35.32978        53.14415         0.13115
C         34.06947        52.46669         0.04699
C         35.38445        54.53980         0.39190
C         37.66240        18.87992         0.00075
C         36.47259        18.09902        -0.49291
C         37.81158        20.20642        -0.71555
C         36.58632        20.83176        -1.21771
C         37.82259        23.08338        -0.99128
C         36.59061        22.38841        -1.36759
C         37.78776        24.49470        -0.85257
C         36.54425        25.21368        -0.94930
C         37.77447        27.34019        -0.70920
C         36.53302        26.63036        -0.85489
C         37.79450        28.76462        -0.70009
C         36.54389        29.49934        -0.66555
C         37.78955        31.67271        -0.68575
C         36.55430        30.88592        -0.57906
C         37.86476        33.08665        -0.24092
C         36.98090        33.69567         0.61518
C         37.95624        35.96132         0.22484
C         36.78799        35.17452         0.64709
C         37.89637        37.36881         0.24967
C         36.63481        38.04152         0.44705
C         37.91985        40.27683         0.22670
C         36.67430        39.51848         0.62026
C         37.83538        41.71693        -0.12594
C         36.57437        42.35737        -0.11310
C         37.78441        44.53838        -0.63603
C         36.53627        43.75450        -0.58769
C         37.71472        45.94142        -0.74074
C         36.49384        46.68019        -0.56754
C         37.73263        48.86194        -0.50108
C         36.51643        48.13191        -0.46540
C         37.76891        50.26507        -0.28154
C         36.53903        50.98143        -0.17137
C         37.78305        53.12942        -0.08917
C         36.55540        52.42613        -0.04927
C         37.80524        54.56098         0.08320
C         36.57535        55.22104         0.38220
C         40.11180        16.15133         1.08834
C         38.92348        16.84728         0.78087
C         40.23851        18.68337        -0.16497
C         38.93933        18.07536         0.14260
C         40.28456        20.19143        -0.53061
C         38.99769        20.91124        -0.70013
C         40.24875        23.05394        -0.59010
C         39.02504        22.35507        -0.82164
C         40.24512        24.47672        -0.58040
C         39.01403        25.19623        -0.68010
C         40.24041        27.32634        -0.54982
C         39.00176        26.62343        -0.62969
C         40.25892        28.75412        -0.55757
C         39.03571        29.44819        -0.66996
C         40.33313        31.63716        -0.51186
C         39.08583        30.90810        -0.80628
C         40.32644        33.08690        -0.56489
C         39.02795        33.86495        -0.80978
C         40.29862        35.96487        -0.44043
C         39.10877        35.27529        -0.26140
C         40.30102        37.38555        -0.31128
C         39.09452        38.09859        -0.06741
C         40.28243        40.18908        -0.56530
C         39.11475        39.51229        -0.18998
C         40.22629        41.63809        -0.86386
C         39.00098        42.40607        -0.55479
C         40.27028        44.55271        -0.87176
C         39.01761        43.82143        -0.71051
C         40.24231        45.94567        -0.93076
C         38.96839        46.66390        -1.00986
C         40.27382        48.86579        -0.57112
C         38.99268        48.19425        -0.87085
C         40.26105        50.27248        -0.30927
C         39.01834        50.97890        -0.25496
C         40.25692        53.10602        -0.25508
C         39.02917        52.40487        -0.20654
C         40.21913        54.57336        -0.62042
C         39.01445        55.28812        -0.03533
C         40.20891        57.43573         0.14492
C         39.05881        56.70108         0.17755
C         42.58058        16.10885         1.32612
C         41.36760        16.76560         0.93799
C         42.67317        18.79781         0.42011
C         41.45398        18.08665         0.40408
C         42.69853        20.21936         0.14663
C         41.50727        20.92599        -0.20810
C         42.66360        23.09133        -0.07616
C         41.47507        22.35026        -0.29600
C         42.71968        24.48896        -0.28893
C         41.48158        25.19858        -0.49942
C         42.70520        27.34875        -0.77255
C         41.45997        26.60518        -0.54903
C         42.72272        28.79991        -0.55043
C         41.50470        29.47900        -0.45459
C         42.77503        31.63503         0.00818
C         41.49784        30.92172        -0.33583
C         42.78042        33.08577        -0.40816
C         41.52833        33.77082        -0.57684
C         42.80684        35.91351        -0.59011
C         41.52125        35.23297        -0.97393
C         42.76063        37.34687        -0.33792
C         41.50668        38.10569        -0.51792
C         42.79754        40.19003        -1.09613
C         41.51484        39.48987        -0.67125
C         42.80768        41.67234        -0.83811
C         41.54378        42.38962        -1.01584
C         42.76113        44.51644        -0.83044
C         41.53729        43.85313        -0.88297
C         42.79712        45.97889        -0.99099
C         41.47953        46.73908        -1.06008
C         42.72302        48.81578        -0.34202
C         41.48715        48.16869        -0.65799
C         42.73012        50.24540        -0.11741
C         41.49209        50.97378        -0.18477
C         42.72663        53.11917        -0.03023
C         41.49127        52.40954        -0.16779
C         42.75286        54.55394        -0.00840
C         41.54171        55.30974        -0.38696
C         42.69201        57.37989         0.58741
C         41.51793        56.79566        -0.06161
C         43.78115        16.76143         1.25928
C         45.09269        18.86194         0.98171
C         43.87158        18.14055         0.87000
C         45.09952        20.28475         0.79935
C         43.89155        20.93605         0.43448
C         45.17668        23.17219         0.53016
C         43.84278        22.39929         0.45092
C         45.19432        24.53828         0.00083
C         43.97783        25.17687        -0.29372
C         45.26421        27.35170        -0.58620
C         44.01636        26.57992        -0.73218
C         45.21862        28.74168        -0.65448
C         43.98760        29.49792        -0.54504
C         45.25574        31.63486        -0.43442
C         44.02099        30.89234        -0.41147
C         45.25454        33.05906        -0.38353
C         43.99429        33.77270        -0.44807
C         45.27111        35.92982        -0.36730
C         44.00206        35.22418        -0.47564
C         45.30100        37.33602        -0.39458
C         44.05649        38.10073        -0.29102
C         45.26253        40.22171        -0.53289
C         44.05599        39.53007        -0.59748
C         45.26356        41.66200        -0.59268
C         44.00934        42.36770        -0.69644
C         45.23148        44.52527        -0.62282
C         44.01159        43.81642        -0.69859
C         45.23695        45.97246        -0.50740
C         44.00718        46.69674        -0.57045
C         45.18470        48.71097         0.17748
C         43.94525        48.07019        -0.29404
C         45.17953        50.21873         0.39149
C         43.93262        50.95073         0.11326
C         45.14778        53.07131         0.43206
C         43.95243        52.38813         0.16208
C         45.18283        54.55308         0.71150
C         43.89114        55.25636         0.38545
C         43.83872        56.65221         0.70432
C         47.46849        18.89088         1.60578
C         46.32596        18.20493         1.34428
C         47.51503        20.35000         1.48990
C         46.32377        21.03130         0.96329
C         47.67037        23.06929         0.43073
C         46.42130        22.39806         0.64700
C         47.65290        24.41988        -0.04789
C         46.46252        25.17006        -0.20884
C         47.70806        27.29652        -0.38895
C         46.50223        26.61167        -0.45511
C         47.78366        28.73984        -0.63680
C         46.46673        29.50478        -0.79831
C         47.72406        31.63013        -0.46820
C         46.48841        30.94829        -0.55694
C         47.72857        33.05056        -0.36250
C         46.48869        33.76587        -0.37325
C         47.73894        35.90916        -0.28140
C         46.50121        35.20208        -0.34193
C         47.72519        37.32917        -0.25762
C         46.52096        38.05883        -0.36961
C         47.71986        40.23158        -0.31320
C         46.50736        39.50538        -0.36788
C         47.72028        41.66670        -0.34704
C         46.47974        42.37483        -0.47770
C         47.71075        44.50113        -0.44619
C         46.47699        43.80783        -0.52752
C         47.73285        45.97665        -0.76561
C         46.45769        46.67981        -0.39206
C         47.68687        48.80666        -0.07291
C         46.47722        48.06164        -0.10783
C         47.67750        50.23740         0.12484
C         46.47368        50.91495         0.32741
C         47.71160        53.15694         0.28052
C         46.42774        52.36533         0.53091
C         47.52331        54.54971        -0.18634
C         46.35555        55.19191        -0.02023
C         50.13915        20.33883         1.44527
C         48.88511        21.09442         1.37338
C         50.18129        22.96609         0.38687
C         48.92053        22.39656         0.67808
C         50.24612        24.32552        -0.20682
C         48.93823        25.05459        -0.39070
C         50.21747        27.23743         0.02046
C         48.97828        26.55653        -0.45902
C         50.16440        28.74659         0.20102
C         48.97444        29.49730        -0.24646
C         50.17220        31.62748        -0.04748
C         48.96497        30.89114        -0.30831
C         50.20434        33.02711        -0.15058
C         48.97168        33.76077        -0.28931
C         50.24994        35.85376        -0.35915
C         48.98798        35.17549        -0.27574
C         50.28236        37.32293        -0.17667
C         48.96460        38.08118        -0.04580
C         50.18637        40.22787        -0.26423
C         48.96604        39.53771        -0.22539
C         50.20194        41.66850        -0.22281
C         48.94455        42.37880        -0.22716
C         50.15395        44.56134        -0.00180
C         48.91195        43.80635        -0.24872
C         50.18404        46.02005        -0.21258
C         48.97386        46.71153        -0.33572
C         50.18113        48.83765        -0.18400
C         48.94818        48.12228        -0.21721
C         50.16632        50.27495        -0.16521
C         48.93143        50.97663        -0.00814
C         50.14512        53.08107        -0.26698
C         48.93709        52.39070        -0.04355
C         51.32408        20.93933         1.17620
C         52.65400        23.00871         0.78312
C         51.40218        22.32117         0.75612
C         52.86468        24.34873         0.09532
C         51.55942        25.09186        -0.20642
C         52.66736        27.29291         0.35768
C         51.53159        26.57319        -0.01397
C         52.63518        28.74935         0.48691
C         51.44366        29.44608         0.33409
C         52.69041        31.67929         0.48855
C         51.36168        30.91086         0.42159
C         52.68747        33.04112        -0.04210
C         51.47211        33.72871        -0.20084
C         52.71442        35.86482        -0.75539
C         51.45178        35.14771        -0.44131
C         52.70676        37.37023        -0.85113
C         51.45645        38.11075        -0.54974
C         52.62647        40.27444        -0.77864
C         51.41528        39.49319        -0.47798
C         52.66432        41.70085        -0.47691
C         51.43760        42.36177        -0.22751
C         52.70620        44.56465        -0.28669
C         51.47408        43.81363         0.00868
C         52.67447        45.98557        -0.28779
C         51.42463        46.71063        -0.19647
C         52.65886        48.85491        -0.36621
C         51.41901        48.13366        -0.26488
C         52.65019        50.27208        -0.37273
C         51.39189        50.99038        -0.30079
C         51.34594        52.40090        -0.37701
C         55.01454        23.12772         1.43887
C         53.80609        22.43224         1.34175
C         55.11680        24.50701         1.14883
C         53.94867        25.20288         0.71371
C         55.10780        27.35674         0.95938
C         53.92173        26.59902         0.63673
C         55.09065        28.76106         0.95180
C         53.88705        29.48295         0.67838
C         55.17051        31.61716         0.57855
C         53.92732        30.88587         0.54975
C         55.19431        33.01350         0.31795
C         53.99707        33.67194        -0.25230
C         55.15521        35.93110         0.03351
C         54.03712        35.17493        -0.52901
C         55.04867        37.38063         0.12742
C         53.95611        38.07609        -0.53076
C         55.19089        40.28188        -0.42405
C         53.98915        39.50222        -0.70928
C         55.15567        41.69722        -0.56042
C         53.90247        42.39972        -0.52479
C         55.14383        44.52364        -0.67889
C         53.91455        43.83713        -0.48278
C         55.08599        45.97298        -0.86599
C         53.87247        46.71419        -0.52605
C         55.14283        48.85499        -0.49224
C         53.89674        48.13512        -0.49420
C         55.09230        50.27493        -0.45248
C         53.89526        50.95703        -0.42895
C         57.59702        24.55170         1.46661
C         56.35434        25.23841         1.30298
C         57.58573        27.36881         1.28794
C         56.34541        26.64738         1.20557
C         57.60701        28.79190         1.26742
C         56.30056        29.52881         1.44076
C         57.56797        31.66368         0.98952
C         56.36764        30.94978         0.93431
C         57.57800        33.06492         0.79837
C         56.38568        33.75024         0.48807
C         57.61250        36.01938         0.83743
C         56.33620        35.23887         0.55539
C         57.68798        37.55830         0.73952
C         56.35115        38.22130         0.37865
C         57.63134        40.27437        -0.28937
C         56.39036        39.60401        -0.13826
C         57.62832        41.68784        -0.51098
C         56.39208        42.40934        -0.57036
C         57.63971        44.54820        -0.65696
C         56.38505        43.83438        -0.69700
C         57.65931        45.96479        -0.57414
C         56.44991        46.75380        -0.81710
C         57.61313        48.77160        -0.04246
C         56.39975        48.16386        -0.44280
C         58.78843        25.23165         1.48664
C         60.03383        27.37369         1.44054
C         58.81351        26.65486         1.39222
C         60.03427        28.75373         1.39413
C         58.82063        29.48118         1.31226
C         60.00050        31.60323         0.58024
C         58.86948        30.99542         1.39318
C         60.01992        32.92185         0.33990
C         58.89300        33.76809         0.82796
C         60.07237        35.99179         0.20815
C         58.92946        35.27593         0.80481
C         60.00881        37.29535        -0.19826
C         58.85165        38.12159        -0.04592
C         60.06161        40.24306        -0.58921
C         58.86137        39.51468        -0.30309
C         60.06807        41.61528        -0.67404
C         58.86935        42.38990        -0.59759
C         60.08052        44.56046        -0.36835
C         58.87349        43.82432        -0.57013
C         60.06910        45.92051        -0.16526
C         58.85103        46.65859        -0.24433
C         58.80322        48.06133         0.00181
O         56.75785        35.65759         1.95085
O         48.11934        21.05806         2.62194
O         38.92561        47.55544        -2.18547
O         45.07314        49.28097         1.52660
O         55.76520        46.44404        -2.06712
O         28.22843        29.22676        -2.28969
O         33.20701        50.66100        -1.38419
O         44.31730        23.00248         1.70523
O         54.31413        34.19907        -1.59929
O         52.67144        36.53120        -2.07226
O         29.08959        47.57504        -0.59938
O         24.43013        33.50167        -1.07300
O         55.38796        38.03045         1.42160
O         37.64191        39.95950         1.65217
O         48.98230        25.76457        -1.67903
O         32.22729        24.95588        -2.87438
O         32.83344        36.48827         1.77374
O         40.76493        41.92641        -2.20908
O         34.61384        31.32655         0.82981
O         29.04197        43.74951        -1.29170
O         41.78549        56.30448        -1.43969
O         43.36257        26.87457        -2.01160
O         47.26318        29.11137        -1.96367
O         30.31595        45.09027         1.95374
O         53.33829        39.90475        -1.97951
O         36.05747        35.54091         1.85766
O         36.75238        21.49794        -2.50886
O         51.86139        31.47225         1.68326
O         43.33930        37.74487         0.97671
O         35.68211        43.99255        -1.75334
O         42.25425        46.45006        -2.27373
O         49.73026        37.67477         1.14508
O         47.27547        52.87963         1.65422
O         40.43392        19.14897        -1.54768
O         59.21556        34.52964         2.04663
O         49.90913        27.82974         1.34006
O         38.41621        31.44057        -2.01312
O         50.81011        44.20012         1.26845
O         51.02575        24.50045        -1.44215
O         35.74614        33.45375        -1.93565
O         56.12144        29.65010         2.89699
H         56.91778        30.10688         3.24893
O         42.82706        40.05164        -2.56805
H         42.08475        40.61148        -2.90534
O         30.51622        36.17939        -1.70423
H         30.35033        35.30589        -2.12483
O         57.94572        38.00046         2.10072
H         57.30523        37.51372         2.67033
O         53.46099        23.99807        -1.19818
H         52.70596        23.82103        -1.80936
O         32.97343        41.82651         2.29817
H         33.78894        41.34901         2.60162
O         38.91189        34.05171        -2.25386
H         38.65542        33.16900        -2.62315
O         59.09814        31.31759         2.79643
H         59.18314        32.29413         2.87003
O         45.40754        54.75152         2.14221
H         46.18534        54.18560         2.37804
O         41.42034        35.26987        -2.43019
H         40.54452        34.85942        -2.65902
O         30.56974        48.70916         2.53794
H         31.36774        49.19634         2.82970
O         37.32777        19.28940         1.38697
H         37.07474        18.47975         1.88004
O         42.82819        31.65001         1.49327
H         43.59674        32.20310         1.75195
O         26.65051        48.03558         2.96662
H         25.87622        47.49765         3.23745
O         36.25388        33.02431         1.53229
H         35.77469        33.70058         2.07363
O         35.26616        40.46483         2.28503
H         36.19321        40.51128         2.62597
O         39.97997        54.58085        -2.06566
H         40.41947        55.39596        -2.40852
O         47.78566        46.03465        -2.24573
H         46.95262        45.64161        -2.58506
O         26.62885        42.47364        -1.28827
H         27.47520        42.96322        -1.53394
O         30.28229        31.97525        -2.65140
H         29.88893        31.16813        -3.04950
H         22.25596        26.70870         0.84788
H         22.20812        29.15860         0.95697
H         22.29785        31.01586         1.30011
H         22.22815        33.42364         1.42847
H         22.11522        35.38416         1.14811
H         22.13822        37.81174         1.39050
H         22.11861        39.68469         1.39653
H         22.10304        42.11558         1.37108
H         22.02107        43.99996         0.89357
H         22.03527        46.46503         0.98352
H         25.49426        23.38611        -0.14956
H         23.45014        24.60948         0.44899
H         25.34607        49.87700         1.05231
H         23.25716        48.60903         0.82990
H         27.05057        22.47926        -0.75416
H         27.09069        50.81431         1.64066
H         29.10969        21.29631        -1.21486
H         29.09490        52.04829         0.91847
H         32.79155        19.13362        -1.36919
H         30.71476        20.36039        -1.49805
H         32.81421        54.21275         0.31137
H         30.73804        53.01707         0.59372
H         34.44194        18.13226        -1.09938
H         34.46091        55.09848         0.58953
H         36.47940        17.00346        -0.39587
H         36.55662        56.30112         0.57246
H         40.05245        15.14043         1.51480
H         37.96023        16.37697         1.03143
H         40.18164        58.51313         0.36297
H         38.12766        57.23408         0.41369
H         42.53137        15.07198         1.68812
H         42.62448        58.40005         0.99183
H         44.68584        16.22533         1.57428
H         44.72734        57.10326         1.16805
H         48.36305        18.34933         1.94202
H         46.34291        17.11138         1.44233
H         48.34596        55.03743        -0.73034
H         46.24148        56.22332        -0.38681
H         50.12256        19.30406         1.81316
H         50.14723        54.17899        -0.30123
H         52.24857        20.35806         1.28941
H         52.26647        52.98285        -0.51191
H         55.88083        22.59422         1.85269
H         53.77541        21.41056         1.74513
H         56.02853        50.84905        -0.47716
H         53.92075        52.05449        -0.42897
H         57.60644        23.45563         1.53358
H         57.62364        49.83705         0.22672
H         59.73823        24.68599         1.58137
H         60.97975        26.82164         1.53597
H         60.98694        29.29627         1.46650
H         60.82468        30.96615         0.22672
H         60.85879        33.38624        -0.19983
H         61.02520        35.45135         0.12067
H         60.90712        37.73344        -0.65645
H         61.01708        39.70605        -0.65990
H         61.03016        42.12458        -0.82319
H         61.03659        44.02348        -0.30443
H         61.00413        46.45470         0.05608
H         59.73258        48.57863         0.27965
