         275
 CSIRO Nanostructure Databank - Neutral Graphene Oxide Data Set
C         31.40114        31.38055         3.66045
C         31.50669        32.60702         3.96261
C         31.33984        36.83093         3.23567
C         31.20336        37.89518         2.58332
C         30.92214        40.70628         1.20013
C         30.84619        41.79548         0.55607
C         33.11611        28.72005         1.68799
C         32.29512        29.28305         2.43601
C         33.13420        31.51643         2.05133
C         32.15569        30.68479         2.71145
C         33.20248        32.91312         2.33100
C         32.39103        33.49676         3.32793
C         33.13268        36.15462         1.80955
C         32.31148        35.84312         2.92247
C         32.98782        37.44420         1.15862
C         31.96161        38.40119         1.51064
C         32.69760        40.01360        -0.22264
C         31.84004        39.67098         0.87530
C         32.65466        41.31191        -1.06821
C         31.55363        42.32999        -0.49613
C         32.65389        44.11095        -1.74133
C         31.75767        43.59949        -1.03202
C         35.40487        27.57859        -0.27578
C         35.37276        28.72462         0.45245
C         34.44966        29.36060         1.42683
C         35.38049        31.65851         0.57069
C         34.03980        30.84760         0.96547
C         35.48700        32.90977         1.46948
C         34.10545        33.71645         1.37484
C         35.27133        35.81498         0.66713
C         34.23507        35.26688         1.41389
C         35.15603        37.12044        -0.03592
C         33.88343        37.83916         0.12556
C         35.44873        40.04743        -1.16920
C         33.60227        39.01743        -0.59633
C         35.27776        41.49205        -1.14084
C         34.02242        42.07607        -1.23343
C         35.09239        44.39419        -1.16408
C         34.04534        43.52816        -1.82616
C         35.32357        45.78800        -1.55110
C         37.64337        27.37550        -0.95114
C         36.34809        26.83488        -0.75885
C         37.57353        28.92614        -0.86310
C         36.77806        29.36323         0.39565
C         37.88499        31.53562         0.41477
C         36.70901        30.87133         0.53780
C         38.03150        32.93743         0.96281
C         36.72365        33.71358         1.12392
C         37.77926        35.79311        -0.00164
C         36.59229        35.12597         0.67392
C         37.70559        37.29861         0.30805
C         36.47320        37.91223        -0.40273
C         37.86059        40.10700        -0.75403
C         36.53873        39.36661        -0.69455
C         37.69156        41.60143        -0.62298
C         36.51801        42.25275        -0.88962
C         37.70240        44.53113        -0.83512
C         36.44218        43.74379        -0.76227
C         37.73990        45.87295        -1.22634
C         36.40482        46.38058        -1.40245
C         40.03267        24.64200        -1.76850
C         38.99639        25.30418        -1.52819
C         40.17499        27.29819        -1.06411
C         38.81229        26.66694        -1.20048
C         40.23489        28.79748        -0.89926
C         38.96516        29.65982        -0.99030
C         40.31067        31.64804        -0.41613
C         39.17666        30.77607         0.11183
C         40.35213        33.09468        -0.11445
C         39.14754        33.77947         0.38954
C         40.36085        35.94837         0.35626
C         39.09217        35.13379         0.36116
C         40.21897        37.31837        -0.36292
C         38.97122        38.04435         0.05086
C         40.24654        40.21189         0.05730
C         38.91413        39.53021         0.22697
C         40.26447        41.68083        -0.30957
C         38.89824        42.41526        -0.17632
C         40.27616        44.45267        -0.88831
C         38.94865        43.68254        -1.04401
C         40.28837        45.91499        -1.19810
C         38.96110        46.58591        -1.49619
C         40.28816        48.36283        -2.33140
C         39.12267        47.82485        -2.08199
C         42.66359        24.60076        -1.92336
C         41.35980        25.18919        -1.76504
C         42.73718        27.29999        -1.55920
C         41.40475        26.54948        -1.42819
C         42.78948        28.73649        -1.02285
C         41.52961        29.54064        -1.26792
C         42.77115        31.64403        -0.75168
C         41.60365        30.94914        -0.68825
C         42.74857        33.15080        -1.02517
C         41.59169        33.86124        -0.32957
C         42.74316        36.00192        -0.66210
C         41.53585        35.20849        -0.22837
C         42.69022        37.44156        -0.20001
C         41.49620        38.09256        -0.09120
C         42.67818        40.25609         0.55858
C         41.42719        39.53111         0.10915
C         42.69827        41.73360         0.25998
C         41.37087        42.45629         0.43354
C         42.69433        44.69669         0.08320
C         41.39811        43.93548        -0.00487
C         42.85022        45.98735        -0.79004
C         41.48243        46.74532        -0.76879
C         42.90511        48.47953        -2.04429
C         41.55368        48.17409        -1.96060
C         43.76921        25.14745        -1.80134
C         45.20493        27.27494        -1.48543
C         43.99368        26.47627        -1.11231
C         45.26362        28.66630        -0.90681
C         43.96713        29.40358        -0.85227
C         45.30914        31.61574        -0.61926
C         44.04367        30.91814        -1.13570
C         45.28136        33.04419        -0.31969
C         44.13986        33.87995        -0.89935
C         45.23005        36.01347        -0.00770
C         43.95775        35.21629        -0.12973
C         45.19442        37.35102         0.21931
C         44.00673        38.16896        -0.26587
C         45.16433        40.27608         0.44768
C         43.97057        39.57288         0.24370
C         45.14974        41.71097         0.51486
C         43.89712        42.41611         0.29488
C         45.05425        44.48063         0.81820
C         43.91368        43.86547         0.37027
C         45.09588        46.71743         0.33621
C         44.05321        46.99733        -0.51542
C         43.91603        48.13925        -1.35779
C         47.45327        27.67224        -2.42010
C         46.40453        27.00111        -2.03361
C         47.55463        28.98562        -2.03810
C         46.52995        29.49422        -1.08667
C         47.74232        31.48491        -0.07439
C         46.50970        30.93996        -0.68878
C         47.65599        32.97171         0.41185
C         46.41419        33.71782         0.10246
C         47.57765        35.90488         0.82661
C         46.53226        35.23924        -0.05571
C         47.62010        37.37559         0.95822
C         46.28388        38.07541         0.98554
C         47.52426        40.24373         1.12127
C         46.37671        39.55944         0.73389
C         47.54783        41.66480         1.03110
C         46.36370        42.39889         0.75074
C         47.56516        44.58676         0.73999
C         46.36906        43.85698         0.80597
C         47.36936        45.99409         0.60549
C         46.52387        46.84079         0.24502
C         50.75469        29.78427        -1.70741
C         49.41130        30.20775        -1.58618
C         50.17433        31.08600         0.54281
C         49.10025        30.86533        -0.36879
C         50.07689        33.12896         1.27697
C         48.97947        33.76110         0.45719
C         50.10821        35.94921         1.22523
C         48.87129        35.17529         1.00007
C         49.99916        37.27650         1.59517
C         48.75085        38.01342         1.41009
C         49.95515        40.24182         1.85100
C         48.64134        39.48568         1.82871
C         49.95350        41.70361         1.85121
C         48.83448        42.38314         1.09845
C         50.11325        44.46436         1.29223
C         48.85999        43.88312         0.78251
C         51.67339        30.06348        -0.88285
C         52.46940        31.57267         1.09962
C         51.55892        30.78473         0.31256
C         52.32758        32.73756         1.51676
C         51.30129        33.73770         1.41673
C         52.43559        35.99462         1.81372
C         51.45331        35.18572         1.01264
C         52.34161        37.16458         2.18231
C         51.14625        38.00526         2.26082
C         52.27141        40.38553         2.54760
C         51.11676        39.49854         2.39754
C         52.37980        41.59144         2.27669
C         51.26645        42.53227         2.17996
C         51.16556        43.85782         1.57288
O         47.88317        35.23113         2.08497
O         34.38775        39.30275        -1.72378
O         50.79449        38.59903         3.53269
O         49.91048        31.80700         1.72718
O         44.81637        45.76586         1.34210
O         46.26604        28.73651         0.16259
O         32.51199        34.79816         3.77875
O         40.70156        44.93089        -2.20574
O         47.51098        31.86332         1.31402
O         40.32153        27.97534         0.26745
O         49.14681        42.90899        -0.25306
O         36.95043        34.78845         2.10193
O         35.39980        44.14274         0.20572
O         33.50197        33.59642         0.11982
O         41.70241        44.80678         1.14406
O         39.91167        32.54148        -1.51457
O         35.76634        37.11028        -1.37964
O         48.46742        29.89981        -2.55802
O         50.27132        42.33491         3.18318
O         37.44720        28.81454         1.55036
H         36.88007        29.00393         2.34063
O         40.67655        41.68769        -1.69500
H         40.04146        41.12001        -2.19420
O         44.08816        30.97468        -2.60402
H         43.95828        31.92280        -2.85751
O         38.98316        30.24134        -2.30015
H         38.88764        31.22065        -2.25044
O         42.41268        33.19370        -2.44519
H         41.45359        32.94797        -2.51087
O         36.74729        29.32638        -1.95452
H         37.34038        29.62193        -2.68752
O         41.50307        29.75103        -2.71529
H         42.32504        30.26339        -2.93871
O         39.70263        30.21030         1.31123
H         39.02561        29.59742         1.69615
O         51.76547        35.27610        -0.37026
H         52.45521        34.61504        -0.58651
O         37.38608        37.44470         1.74286
H         37.96875        36.83078         2.24444
O         40.16547        37.02885        -1.79893
H         39.33266        36.50964        -1.95595
O         43.96202        26.30070         0.28758
H         44.85917        26.09124         0.61961
O         42.76265        36.02737        -2.11095
H         41.92545        36.47914        -2.38849
O         38.67116        42.80411         1.18397
H         38.59532        41.97947         1.71908
O         34.42178        43.38879        -3.19156
H         33.69255        42.94382        -3.67218
O         40.66487        36.21884         1.75829
H         41.57503        35.89989         1.94974
O         41.25225        47.35329         0.44510
H         42.08344        47.72839         0.80323
O         43.14507        45.48188        -2.08976
H         43.18100        46.22932        -2.72453
O         35.29007        32.08110        -0.78907
H         34.54212        32.75287        -0.82871
O         41.09414        42.41002         1.85298
H         41.34008        43.29342         2.22140
O         38.45889        39.90083         1.56662
H         37.99846        39.10964         1.95290
O         32.20896        40.96304        -2.38853
H         32.78235        40.22921        -2.70640
O         47.03101        35.40118        -1.42942
H         46.30796        35.04866        -2.01726
O         42.59318        40.16858         2.03676
H         41.92798        40.84819         2.31940
O         44.26980        38.33714        -1.71467
H         45.14067        38.77781        -1.81528
O         37.77839        35.57440        -1.43792
H         36.91532        35.89949        -1.80470
O         45.85042        37.95784         2.38265
H         46.51864        38.44075         2.93377
O         35.16383        29.49313         2.65847
H         34.64817        30.07292         3.26228
O         38.41781        39.86743        -2.08439
H         37.80046        40.24162        -2.74912
O         35.65689        32.45021         2.82499
H         36.09008        33.17392         3.32865
O         48.17433        39.42442         3.22739
H         48.93674        39.08144         3.75969
O         38.83250        43.24224        -2.41803
H         39.40391        43.84249        -2.95690
O         43.61358        34.88732         1.25163
H         44.44052        34.75223         1.76346
O         49.44194        33.84131        -0.91770
H         48.80888        34.42334        -1.40684
O         33.24443        30.72386        -0.19776
H         32.95271        31.63653        -0.43649
O         38.51826        32.70170         2.32389
H         38.42866        33.55769         2.80202
O         42.92075        27.46885        -2.98623
H         42.27131        28.14860        -3.29596
O         44.63238        34.19334        -2.22495
H         43.94056        34.76778        -2.64763
