         651
 CSIRO Nanostructure Databank - Neutral Graphene Oxide Data Set
C          6.09471        31.90761        -1.57563
C          6.08110        33.26594        -1.44171
C          8.47718        27.44994        -1.06901
C          8.30823        28.86968        -0.71547
C          7.24295        29.73398        -1.29225
C          8.22023        31.78936        -0.21258
C          7.18423        31.08602        -1.08083
C          8.34972        33.28042        -0.48715
C          7.21688        34.00764        -0.92253
C          8.38071        36.11731        -0.43896
C          7.24087        35.42117        -0.85914
C          8.32410        37.62073        -0.23461
C         11.00932        23.19037        -0.86468
C         10.93875        24.60327        -0.60097
C          9.80267        25.35420        -1.03219
C         10.85202        27.46031        -0.30002
C          9.65348        26.74425        -0.79719
C         10.77507        28.88198         0.08122
C          9.49131        29.58856        -0.12861
C         10.70240        31.73883         0.35130
C          9.56961        31.07636        -0.39640
C         10.72061        33.22345         0.29027
C          9.52929        33.97059        -0.18864
C         10.80925        36.10048         0.09241
C          9.57574        35.39458        -0.19157
C         10.83235        37.47732         0.30564
C          9.62255        38.26375         0.23113
C         10.86992        40.32159         0.86054
C          9.66422        39.61654         0.48396
C         10.86246        41.72125         0.82004
C         13.57645        19.08344        -1.52876
C         13.46516        20.37359        -0.99170
C         12.27983        21.11142        -1.10478
C         13.29650        23.05332         0.07356
C         12.16028        22.43983        -0.60751
C         12.99850        24.33842         0.83830
C         11.99812        25.20586         0.10904
C         12.99665        27.32866         1.13987
C         12.04727        26.66470         0.18476
C         13.00174        28.85854         1.28313
C         11.90033        29.54730         0.50987
C         13.18300        31.62694         0.69875
C         11.97146        30.98567         0.50597
C         13.29700        33.06225         0.34058
C         12.04849        33.85385         0.06822
C         13.36096        36.01660         0.34654
C         12.08451        35.35409         0.01932
C         13.32034        37.44446         0.56732
C         12.07820        38.14477         0.62785
C         13.24521        39.99458         1.65030
C         12.06433        39.50152         1.05103
C         13.24787        42.20573         1.44999
C         11.99876        42.60976         0.84506
C         13.18084        44.63048         0.08095
C         11.96185        43.90822         0.31005
C         13.24461        45.98712        -0.15960
C         16.27761        14.93815        -2.26780
C         16.21381        16.41059        -2.31247
C         14.93976        17.10861        -2.07198
C         16.04655        19.26206        -1.43623
C         14.83529        18.42266        -1.65466
C         15.96469        20.47215        -0.58468
C         14.59237        20.91273        -0.13623
C         15.70655        23.01391         0.68246
C         14.50724        22.39755         0.14957
C         15.61216        24.36950         1.27312
C         14.27883        25.05721         1.31104
C         15.45492        27.31502         1.90796
C         14.19875        26.55352         1.55754
C         15.54090        28.80289         1.63593
C         14.36417        29.52192         1.16450
C         15.64475        31.65672         1.33026
C         14.40041        30.89470         0.98582
C         15.72759        33.14668         1.23747
C         14.56559        33.82285         0.57312
C         15.83038        35.96332         0.59578
C         14.51394        35.29782         0.59444
C         15.82542        37.47895         0.54264
C         14.53014        38.12006         0.82926
C         15.75339        39.98321         1.87801
C         14.49229        39.36369         1.49507
C         15.71811        42.19871         1.53567
C         14.47521        42.76651         1.12029
C         15.73402        44.50758        -0.18440
C         14.41551        43.75306        -0.03784
C         15.71022        45.98342        -0.20857
C         14.50550        46.70085        -0.25590
C         15.70123        48.89853        -0.35127
C         14.52130        48.13748        -0.26665
C         15.73651        50.29494        -0.44810
C         18.67045        10.64103        -2.23328
C         18.68339        12.04985        -2.20496
C         17.51677        12.81565        -2.33088
C         18.74267        14.99579        -2.06163
C         17.47582        14.24890        -2.29720
C         18.66866        16.40881        -1.57752
C         17.51009        17.19681        -2.05893
C         18.59158        19.31034        -1.06302
C         17.39301        18.64606        -1.66789
C         18.42854        20.56706        -0.30252
C         17.08852        21.12313        -0.10790
C         18.13059        22.99650         1.27863
C         16.93587        22.38453         0.62104
C         18.11484        24.45250         1.75106
C         16.83925        25.16620         1.35392
C         17.99123        27.33593         1.74567
C         16.74299        26.52278         1.90600
C         17.90220        28.72159         2.36240
C         16.73725        29.46963         1.77900
C         18.12042        31.68701         1.89005
C         16.94823        30.89532         1.26925
C         18.22956        33.13571         1.65615
C         17.04537        33.86099         1.27370
C         18.25870        36.01984         1.19946
C         17.05712        35.24290         1.02448
C         18.27993        37.43602         1.16508
C         17.11471        38.27677         0.68976
C         18.22462        40.36255         1.77816
C         16.97615        39.53766         1.50494
C         18.18481        41.78775         1.19622
C         16.96677        42.51582         0.97461
C         18.26479        44.59647         0.36353
C         17.00494        43.80216         0.20361
C         18.17683        46.06564         0.58922
C         16.92747        46.74903         0.13831
C         18.17013        48.95506         0.13670
C         17.01814        48.13651        -0.48572
C         18.20944        50.35909        -0.30253
C         16.97633        51.02754        -0.52410
C         18.25407        53.06577        -1.04538
C         17.01926        52.41117        -0.81811
C         18.31405        54.49562        -1.18531
C         20.98180         6.29007        -1.77681
C         21.00484         7.69489        -1.71126
C         19.84744         8.47320        -2.05287
C         21.05163        10.55809        -1.54944
C         19.84953         9.86830        -2.01368
C         21.08124        11.92136        -1.46108
C         20.05021        12.72065        -2.21313
C         20.93137        14.72988        -0.77873
C         19.99723        14.20996        -1.83298
C         20.80088        16.16595        -0.32394
C         19.72674        16.99163        -0.93952
C         20.86580        19.02341         0.07487
C         19.80620        18.45717        -0.76649
C         20.80675        20.39462         0.39087
C         19.55409        21.11456         0.28730
C         20.71901        23.16168         1.23568
C         19.47039        22.37053         1.06979
C         20.63775        24.60048         1.40083
C         19.39492        25.22027         1.40380
C         20.59357        27.55290         1.45430
C         19.31076        26.69650         1.39494
C         20.35913        28.74334         2.38977
C         19.19375        29.47652         2.32174
C         21.03488        31.94520         2.05751
C         19.10975        30.91399         2.48756
C         20.76993        33.24230         1.54254
C         19.47896        33.88012         1.60987
C         20.71230        36.04291         1.30045
C         19.48369        35.30090         1.39615
C         20.72672        37.47165         1.25376
C         19.49045        38.17773         1.31399
C         20.68994        40.31814         1.20710
C         19.48334        39.60941         1.37060
C         20.67494        41.75735         1.12316
C         19.43629        42.42357         1.00954
C         20.65017        44.66127         1.32510
C         19.50367        43.88046         0.72333
C         20.65532        46.11409         0.85413
C         19.48231        46.78261         0.63254
C         20.72027        49.06210         0.62669
C         19.42090        48.26741         0.57307
C         20.67990        50.29353        -0.27682
C         19.46673        50.97209        -0.58500
C         20.68398        52.98495        -1.65741
C         19.46659        52.32354        -1.04898
C         20.77580        54.46305        -1.33696
C         19.52579        55.19342        -1.22549
C         20.76394        57.33019        -1.05599
C         19.56471        56.60901        -1.03831
C         20.80788        58.71532        -0.84750
C         23.23814         3.35179        -1.17143
C         22.09883         4.09134        -1.49706
C         23.32747         6.16062        -1.04017
C         22.11885         5.50805        -1.43753
C         23.37410         7.58371        -0.97757
C         22.20507         8.35293        -1.28185
C         23.41049        10.42724        -0.81134
C         22.22863         9.78234        -1.14869
C         23.51089        11.93358        -0.77169
C         22.11079        12.50943        -0.52822
C         23.11086        14.59858         0.46228
C         22.15938        14.00753        -0.48284
C         23.13194        16.07741         0.60638
C         22.00927        16.82463         0.23769
C         23.18136        18.91291         0.85669
C         22.00606        18.24848         0.40364
C         23.18451        20.33219         1.01901
C         21.96505        21.04867         0.90093
C         23.18995        23.15056         1.31988
C         21.93520        22.46764         1.15839
C         23.13632        24.62994         1.19103
C         21.88091        25.38902         1.43113
C         23.18677        27.50776         1.49522
C         21.90854        26.76928         1.57152
C         23.26991        28.97639         1.45635
C         22.32018        29.80924         2.04343
C         23.09086        31.73180         0.70976
C         22.12306        31.16190         1.65820
C         23.06983        33.22783         0.52757
C         21.91715        33.95922         1.07554
C         23.26662        36.05005         1.10969
C         21.93478        35.34686         1.11077
C         23.17894        37.52010         0.82425
C         21.95747        38.19862         1.05424
C         23.15996        40.36014         0.93212
C         21.93019        39.62471         1.02202
C         23.16342        41.76479         1.07424
C         21.93046        42.50194         1.08955
C         23.19485        44.69863         1.32826
C         21.93681        43.90606         1.11007
C         23.14176        46.07532         0.70453
C         21.93625        46.80004         0.63643
C         23.16181        48.86711        -0.05339
C         21.91910        48.18419         0.31604
C         23.18890        50.38699        -0.00277
C         21.95008        50.88024        -0.72610
C         23.27657        52.99168        -1.44603
C         21.98044        52.22442        -1.40954
C         23.24678        54.44274        -1.27334
C         21.98816        55.13091        -1.28882
C         23.30918        57.31330        -1.04895
C         22.02953        56.62792        -1.48810
C         23.28601        58.72162        -0.96022
C         22.03524        59.43662        -0.87329
C         23.27714        61.53993        -0.75015
C         22.06093        60.83943        -0.75494
C         24.42051         3.98183        -0.78766
C         25.68172         6.06755        -0.31966
C         24.49417         5.39980        -0.71795
C         25.75111         7.47276        -0.27662
C         24.59986         8.22091        -0.65274
C         25.87192        10.38556        -0.10075
C         24.65436         9.67940        -0.68829
C         25.68789        11.74777         0.46558
C         24.54147        12.44821         0.24783
C         25.49061        14.51496         1.57558
C         24.32004        13.78543         0.87974
C         25.55096        15.98700         1.20497
C         24.35039        16.73041         0.99384
C         25.59539        18.86536         1.26879
C         24.37576        18.16406         1.04862
C         25.61498        20.28120         1.38428
C         24.41391        21.02119         1.30606
C         25.68571        23.19686         1.74452
C         24.39535        22.46355         1.38837
C         25.71226        24.63714         1.30850
C         24.43271        25.37139         1.18307
C         25.68169        27.53428         1.27732
C         24.38354        26.82264         1.36206
C         25.66063        28.87533         0.57506
C         24.40916        29.66313         0.87283
C         25.57380        31.82066         0.34819
C         24.35684        31.00084         0.56116
C         25.51670        33.23593        -0.13699
C         24.30562        33.97066         0.18059
C         25.44761        36.11285        -0.22871
C         24.32664        35.33784         0.30753
C         25.57787        37.54191         0.14980
C         24.37738        38.23351         0.55701
C         25.63376        40.34463         0.58933
C         24.39036        39.64760         0.70039
C         25.69003        41.74539         0.83675
C         24.46833        42.46698         1.37151
C         25.64778        44.59823         0.87296
C         24.46061        43.93556         1.01948
C         25.68306        46.00801         0.58021
C         24.40044        46.57973         0.02711
C         25.74248        48.81351         0.04100
C         24.44868        48.10066        -0.11635
C         25.73188        50.32737         0.10894
C         24.50187        50.88583        -0.55747
C         25.75684        53.02073        -0.67144
C         24.59108        52.21994        -1.11093
C         25.55090        54.38695        -0.49719
C         24.44472        55.14761        -0.96349
C         25.78889        57.32660        -1.00054
C         24.52467        56.59772        -0.95362
C         25.73256        58.73363        -1.03730
C         24.52024        59.44609        -0.92826
C         24.48765        60.86714        -0.83909
C         26.92509         8.15946         0.21231
C         28.13864        10.22510         0.86650
C         26.97438         9.52837         0.39955
C         28.11369        11.58701         1.13194
C         26.76758        12.23805         1.41734
C         28.14328        14.48693         1.24495
C         26.84474        13.76397         1.48806
C         28.01984        15.93679         0.94187
C         26.78405        16.66014         1.16515
C         28.02896        18.77623         1.00498
C         26.81350        18.10060         1.16948
C         28.15187        20.21005         1.30220
C         26.91514        20.97563         1.76077
C         28.08068        23.08945         0.91698
C         26.94345        22.44142         1.35700
C         28.10879        24.54402         0.78315
C         26.89874        25.28080         1.09245
C         28.14208        27.41448         0.50700
C         26.95691        26.75801         1.10643
C         28.23553        28.89243         0.50698
C         26.94892        29.66217         0.76711
C         28.13816        31.82771         0.07354
C         26.88212        31.13619         0.49344
C         27.96906        33.15083        -0.61059
C         26.68554        33.89778        -0.45853
C         27.97213        36.11218        -0.85257
C         26.67365        35.34989        -0.73940
C         28.03891        37.50945        -0.31923
C         26.80197        38.20370         0.05542
C         28.07284        40.31553         0.32540
C         26.84202        39.62540         0.32889
C         28.11814        41.71537         0.49332
C         26.90549        42.42110         0.75072
C         28.16187        44.63332         0.73279
C         26.94343        43.87069         1.15874
C         28.14620        45.99596         0.66687
C         26.88112        46.70062         0.51572
C         28.19455        48.74373        -0.32948
C         26.91026        48.11672         0.17463
C         28.21126        50.25387        -0.29525
C         27.03281        50.97941        -0.31078
C         28.29218        53.11229        -0.63827
C         27.03151        52.40881        -0.45762
C         28.39928        54.50874        -0.98118
C         27.40658        55.45606        -0.68291
C         27.09123        56.72429        -1.18987
C         29.33288        12.32261         1.21589
C         30.74213        14.30938         1.20130
C         29.43376        13.71028         1.12144
C         31.07094        15.54605         0.62711
C         29.06387        16.64022         0.38545
C         30.29218        18.73349         0.03133
C         29.14786        18.06883         0.47658
C         30.43229        20.17893         0.07328
C         29.36692        20.93679         0.80083
C         30.49541        23.03834         0.25168
C         29.33206        22.39615         0.62357
C         30.42319        24.46316        -0.24452
C         29.21563        25.20675         0.28438
C         30.38655        27.29231        -0.51219
C         29.21600        26.64684         0.13574
C         30.41711        28.81514        -0.77484
C         29.36318        29.57875        -0.12631
C         30.57240        31.74467        -0.74530
C         29.41424        31.04394        -0.14090
C         30.53517        33.12181        -0.87075
C         29.23527        33.84364        -1.00550
C         30.52537        35.94572        -0.45634
C         29.25167        35.34910        -1.02818
C         30.53093        37.45905        -0.50273
C         29.26272        38.14359        -0.24585
C         30.53020        40.34451        -0.17832
C         29.36069        39.53380         0.34338
C         30.58334        41.77476         0.21390
C         29.38557        42.42451         0.44695
C         30.67514        44.60258         0.57605
C         29.37874        43.91001         0.24341
C         30.69791        45.97826         0.60972
C         29.43436        46.77728         0.82604
C         30.68355        48.80035         0.00467
C         29.46272        48.11959         0.16423
C         30.67337        50.18601        -0.36660
C         29.47365        50.92909        -0.45612
C         29.47148        52.33335        -0.64784
C         32.19478        16.38813         0.81423
C         33.19266        18.71692         0.54488
C         32.27601        17.69818         0.26368
C         33.08376        20.12108         0.21714
C         31.79956        20.85464        -0.02244
C         32.95765        23.03584         0.09529
C         31.77311        22.33628         0.18294
C         32.96969        24.48251        -0.33822
C         31.70136        25.26038        -0.08910
C         32.91820        27.42146        -0.16845
C         31.68802        26.60724        -0.32545
C         32.99783        28.80455        -0.65197
C         31.74547        29.48769        -1.21427
C         32.97860        31.63020        -1.14807
C         31.79408        30.98748        -0.93130
C         32.99866        33.10190        -1.32531
C         31.75035        33.87380        -1.09438
C         33.02822        36.00002        -1.14212
C         31.76047        35.24530        -0.99940
C         33.01475        37.47554        -0.83441
C         31.71969        38.13767        -0.54804
C         33.07967        40.27117        -0.22521
C         31.78704        39.61578        -0.51732
C         33.09956        41.78221        -0.30545
C         31.84647        42.47863         0.20569
C         33.17349        44.53572         0.85794
C         31.88954        43.83184         0.49495
C         33.15778        45.99016         0.48022
C         31.96047        46.70299         0.45775
C         31.91596        48.10301         0.20716
C         34.22763        20.91306         0.31190
C         35.42285        23.06504         0.05786
C         34.23197        22.33916         0.13053
C         35.45567        24.50798        -0.00971
C         34.24314        25.21178        -0.01616
C         35.49298        27.38747        -0.24244
C         34.24562        26.66954         0.04149
C         35.46263        28.72718        -0.61166
C         34.21418        29.43394        -0.81821
C         35.47269        31.57482        -0.96888
C         34.23528        30.82947        -1.46193
C         35.50234        33.05232        -0.77033
C         34.30394        33.84067        -1.16954
C         35.45767        35.96997        -0.60992
C         34.30260        35.29137        -0.91466
C         35.44997        37.40045        -0.37197
C         34.25570        38.11353        -0.35800
C         35.44161        40.13932         0.60981
C         34.21429        39.52705        -0.02955
C         35.51628        41.62533         0.42505
C         34.38207        42.40674         0.20400
C         34.40966        43.78569         0.45569
C         36.68462        25.24230         0.02218
C         37.96670        27.35478        -0.16430
C         36.73303        26.63895        -0.14763
C         38.00920        28.72804        -0.45294
C         36.76149        29.37826        -0.90266
C         38.01248        31.63545        -0.78884
C         36.78781        30.88890        -1.10432
C         37.98048        33.07581        -0.71922
C         36.79051        33.77203        -0.70660
C         37.96776        35.99619        -0.85328
C         36.75252        35.23313        -0.31138
C         37.94032        37.42376        -0.39824
C         36.73216        38.10172        -0.16790
C         36.71236        39.45108         0.21921
C         39.18265        29.51163        -0.34790
C         40.38229        31.68586        -0.11142
C         39.19109        30.92011        -0.48017
C         40.42881        33.03070        -0.19096
C         39.30313        33.81458        -0.81600
C         39.22261        35.27434        -0.46342
O         17.20322        46.52948         1.58167
O         30.01499        27.83377        -1.79387
O         33.47434        27.23442         1.17682
O         21.46422        29.29201         3.01832
O         18.70035        22.13358         2.33325
O         26.31310        31.83019         1.66092
O         30.38606        24.35984        -1.66858
O         35.27363        32.13267         0.37701
O         31.94818        29.31629        -2.59160
O         30.08507        15.98405        -0.28629
O         17.07099        16.93966        -3.40389
O         24.17363        52.49893        -2.49095
O         26.48229        55.03690         0.30943
O         36.87554        29.98156        -2.23371
O         15.67165        41.22713         2.55455
O         31.25641        18.04799        -0.67187
O         20.21858        15.09779         0.50142
O         14.28141        33.23882        -0.74477
O         23.75414        25.00695        -0.11034
O         14.76122        24.39717         2.53198
O         26.55290        27.34324         2.41845
O         19.70459        19.25695        -2.00753
O         28.64897        35.98363        -2.16460
O         25.73002        10.28228        -1.55357
O         15.42785        32.48807         2.51770
O         18.41113        27.26471         0.34298
O         20.21057        31.51706         3.10589
O         27.65555        14.19547         2.62485
O         16.79147        19.48683        -2.69406
O         15.92151        36.70765        -0.69213
O         13.17789        41.18282         2.40127
O         33.08068        36.98764        -2.22750
O         22.05577        50.99699        -2.19135
O         10.45386        32.53758         1.55774
O         13.04850        26.73358         2.47002
O          8.44919        29.12192         0.78296
O         29.10887        31.76300         1.14628
O         19.84372        14.98811        -3.06217
O         23.15930        13.84360         1.78020
O         30.97001        20.62712        -1.21216
O         12.11032        34.52839        -1.21526
O         16.57729        43.82449        -1.19665
O         30.92603        40.21511        -1.58095
O         17.30815        47.97946        -1.82899
O         18.41748        48.76938         1.55984
O         12.05377        27.27271        -1.15923
O         25.66028        35.82979        -1.66056
O         16.00250        26.79695         3.16821
O         19.25204        44.24758        -0.66961
O         28.40612        33.18214        -2.01459
O         27.81907        29.40499         1.86322
O         23.75626        48.47503        -1.36771
O         33.78708        33.50926        -2.49680
O         22.59249        32.31307        -0.54294
O         29.30197        20.47805         2.20793
O         25.66520        50.60707         1.58000
H         25.95451        51.53691         1.70973
O         17.48732        38.73263        -0.64480
H         17.25081        38.00418        -1.26566
O         33.20446        44.50373         2.34983
H         33.97914        45.03264         2.63714
O         25.65387        23.28125         3.21211
H         26.00315        22.41769         3.55544
O         29.43020        47.10299         2.28252
H         30.30614        47.49439         2.49210
O         23.24395        44.89988         2.80866
H         23.58684        44.04387         3.17966
O         33.08059        42.05759        -1.74750
H         32.34238        41.52147        -2.12695
O         24.59539        42.44816         2.85199
H         25.49987        42.81016         3.04985
O         37.83773        35.96639        -2.33738
H         38.34950        36.72145        -2.69857
O         21.63775        12.01160         0.76415
H         22.01767        12.59192         1.47399
O         25.17545        14.53696         2.98814
H         25.12984        13.60429         3.29288
O         20.88443        49.53487         1.99675
H         19.98599        49.53920         2.40411
O         18.32623        40.54160         3.22442
H         17.49049        40.97480         3.51430
O         36.90316        35.24394         1.14088
H         36.31143        34.55680         1.51481
O         12.61396        29.16628         2.65585
H         12.82038        28.36564         3.19923
O         17.71705        28.60108         3.79966
H         16.95480        27.98720         3.96612
O         20.74522        28.21493         0.15877
H         19.89511        28.09098        -0.33003
O         35.26796        39.92097         2.07430
H         35.49458        38.98387         2.25800
O         20.49116        12.63168        -3.59951
H         20.20924        13.47024        -4.03903
O         29.27362        44.04601        -1.23055
H         30.03818        43.57638        -1.62912
O         24.30745        46.00187        -1.31584
H         23.84824        46.67640        -1.87426
O         39.62246        33.88125        -2.25651
H         38.90231        34.42050        -2.67308
O         33.01033        24.38098        -1.80447
H         32.03974        24.28698        -2.08384
O         27.02212        43.83188         2.64644
H         27.18468        44.74973         2.95730
O         14.40670        20.27497         1.18129
H         13.59004        20.64972         1.57622
O         28.17281        48.41227        -1.77306
H         27.36189        48.80803        -2.16010
O         26.94736        20.93598         3.22793
H         27.89988        20.98490         3.48121
O         14.19854        42.96477        -1.23554
H         15.07044        42.90568        -1.69800
O         25.64103        28.58986        -0.85602
H         24.79007        28.15573        -1.08145
O         29.69407        39.33810         1.76386
H         28.91519        38.93662         2.20451
O         23.05845        50.89716         1.34157
H         23.87960        50.64883         1.83708
O         18.15230        24.46440         3.21005
H         18.38122        23.54658         3.49622
O         12.30528        23.88858         2.04108
H         12.99090        23.84124         2.75168
O         23.74636        35.95928         2.51020
H         23.11235        36.45446         3.07213
O          9.90212        31.21754        -1.80564
H         10.78749        30.82775        -1.96681
O         20.45197        52.93338        -3.10192
H         20.73937        52.03879        -3.39760
O         17.23762        30.76203        -0.15434
H         18.02213        30.18455        -0.26355
O         34.28169        30.64098        -2.87894
H         33.44276        30.13536        -3.09985
O          7.79113        31.69544         1.15864
H          7.79956        30.73820         1.40573
O         23.97798        12.38707        -2.06515
H         24.73931        11.80852        -2.31333
O          7.87490        38.26706        -1.43864
H          8.53726        38.10013        -2.14035
O         30.44503        35.59930         0.96944
H         31.19488        36.02285         1.43779
O         20.45307        44.69454         2.76810
H         21.31504        44.97802         3.16248
O         26.36731        11.80663         2.75112
H         26.99791        12.23498         3.37340
O         22.04590        56.78998        -2.95516
H         22.76070        56.21945        -3.31017
H          5.24588        31.40150        -2.06117
H          5.21530        33.83846        -1.80690
H          7.63235        26.92133        -1.53591
H          6.45962        29.24412        -1.89289
H          6.33527        35.98709        -1.12370
H          7.53278        37.82925         0.53659
H         10.17325        22.71477        -1.39897
H          8.96524        24.80495        -1.48783
H          8.74685        40.20894         0.34514
H          9.90900        42.18533         0.51662
H         12.68072        18.59505        -1.94294
H         11.43812        20.68460        -1.67177
H         10.99631        44.37007         0.05170
H         12.31692        46.58056        -0.15432
H         15.33003        14.37770        -2.27479
H         14.01679        16.51635        -2.17341
H         13.55632        48.66034        -0.16101
H         14.79593        50.85546        -0.57355
H         17.71412        10.11527        -2.38250
H         16.55618        12.28812        -2.44502
H         16.08307        52.98300        -0.89733
H         17.37382        55.06410        -1.11887
H         20.06061         5.78108        -2.09774
H         18.93048         7.94049        -2.34744
H         18.62162        57.13992        -0.83527
H         19.87156        59.26399        -0.66138
H         23.20190         2.25443        -1.22188
H         21.17745         3.57705        -1.80539
H         23.26714        62.63613        -0.67145
H         21.11300        61.39076        -0.67443
H         25.30825         3.38374        -0.53716
H         26.56215         5.47268        -0.03497
H         26.67465        59.29909        -1.09585
H         25.43440        61.42619        -0.83262
H         27.78203         7.54687         0.52970
H         29.10199         9.69143         0.86448
H         29.29283        54.82498        -1.54000
H         27.85107        57.31051        -1.72813
H         30.26540        11.73746         1.17706
H         31.53933        13.70359         1.65984
H         31.63494        50.70564        -0.49186
H         30.43601        52.84219        -0.79497
H         32.97373        16.07327         1.52260
H         34.11914        18.42570         1.06472
H         34.11232        46.51765         0.33105
H         32.86075        48.64602         0.05785
H         35.19479        20.41668         0.48584
H         36.38109        22.52522         0.09477
H         36.44700        42.12474         0.74094
H         35.37497        44.24192         0.73761
H         37.62938        24.68608         0.11868
H         38.90118        26.81512         0.05187
H         38.89124        37.96569        -0.27672
H         37.66437        39.98637         0.35548
H         40.11606        29.01234        -0.04519
H         41.24478        31.12512         0.28042
H         41.33954        33.57367         0.10289
H         40.17045        35.84093        -0.46883
