         204
 CSIRO Nanostructure Databank - Neutral Graphene Oxide Data Set
C        -10.91531         0.60143         1.09707
C         -9.75302         1.36936         0.70758
C         -8.60327         0.65914         0.18585
C         -7.38249         1.39401        -0.09998
C         -6.22008         0.71914        -0.56815
C         -4.94262         1.37297        -0.62390
C         -3.77894         0.72565        -0.98868
C         -2.51735         1.47338        -1.14718
C         -1.22546         0.70409        -1.17343
C          0.03162         1.44165        -0.90563
C          1.21872         0.73478        -0.72532
C          2.47173         1.44599        -0.58437
C          3.68389         0.74502        -0.42304
C          4.90852         1.42851        -0.21741
C          6.14846         0.72352        -0.01011
C          7.37021         1.44622         0.18774
C          8.60080         0.72199         0.27711
C          9.84110         1.44119         0.31941
C         11.07105         0.69508         0.41326
C         -9.72252         2.74780         0.85084
C         -8.52371         3.49008         0.60053
C         -7.36483         2.78834         0.18520
C         -6.08825         3.52090         0.17257
C         -4.84979         2.79412        -0.21513
C         -3.65023         3.57636        -0.58430
C         -2.47573         2.92423        -0.86383
C         -1.21031         3.62066        -0.90300
C          0.01017         2.88368        -0.90003
C          1.25486         3.57666        -0.80452
C          2.46954         2.88259        -0.62827
C          3.70507         3.59048        -0.37881
C          4.90263         2.84710        -0.13892
C          6.09182         3.52984         0.26672
C          7.37046         2.87091         0.31566
C          8.62554         3.59139         0.29034
C          9.82875         2.83456         0.24712
C         -8.47240         4.89781         0.81252
C         -7.30451         5.66069         0.60155
C         -6.09048         4.99984         0.19741
C         -4.93072         5.71220        -0.05367
C         -3.74937         5.06684        -0.73743
C         -2.43538         5.75964        -0.49477
C         -1.21783         5.05124        -0.68391
C          0.00443         5.77493        -0.65970
C          1.24788         5.04308        -0.91852
C          2.56707         5.79615        -0.67958
C          3.73546         5.00565        -0.30870
C          4.87009         5.68934         0.21060
C          5.93905         4.87713         0.64102
C          7.77398         5.92741         0.53390
C          8.74738         5.01502         0.11998
C         -7.27686         7.07449         0.75582
C         -6.09822         7.79989         0.56526
C         -4.89183         7.12685         0.16126
C         -3.67539         7.83937         0.03805
C         -2.43401         7.14654        -0.24159
C         -1.19921         7.86161        -0.20094
C          0.03018         7.17026        -0.41171
C          1.28108         7.88148        -0.24882
C          2.51383         7.20077        -0.25146
C          3.73311         7.86435         0.07470
C          4.95252         7.13359         0.24094
C          6.20665         7.85070         0.27009
C          7.49513         7.26367         0.15937
C         -6.05326         9.22872         0.75206
C         -4.88633         9.92114         0.61185
C         -3.64903         9.25062         0.29324
C         -2.43703         9.94447         0.27498
C         -1.19801         9.27491         0.06079
C          0.02543         9.96815         0.13635
C          1.26171         9.29350         0.02671
C          2.49492         9.98124         0.17320
C          3.71277         9.29622         0.19189
C          4.97196         9.98468         0.27608
C          6.14810         9.29289         0.23564
C        -10.92545        -0.75740         1.04225
C         -9.78803        -1.49587         0.52649
C         -8.64152        -0.72860         0.08484
C         -7.53314        -1.45505        -0.54948
C         -6.31135        -0.68356        -1.00923
C         -5.05236        -1.45236        -1.35394
C         -3.75171        -0.71748        -1.33174
C         -2.48770        -1.46248        -1.09937
C         -1.28365        -0.76128        -0.96261
C         -0.07143        -1.43702        -0.64926
C          1.19167        -0.71883        -0.53416
C          2.37427        -1.37966        -0.22885
C          3.69127        -0.74681        -0.61333
C          4.92621        -1.43483        -0.07951
C          6.15393        -0.70046         0.01826
C          7.37302        -1.40842         0.24830
C          8.60354        -0.69347         0.32479
C          9.83920        -1.41844         0.46612
C         11.07015        -0.66742         0.49652
C         -9.81007        -2.86624         0.40591
C         -8.70427        -3.66717        -0.24889
C         -7.42344        -2.89299        -0.32239
C         -6.07455        -3.48761        -0.17651
C         -5.08700        -2.98426        -1.31469
C         -3.74885        -3.62074        -1.08810
C         -2.54097        -2.89946        -0.97353
C         -1.29374        -3.59069        -0.76594
C         -0.10562        -2.84933        -0.60327
C          1.10400        -3.55564        -0.14756
C          2.35735        -2.79322         0.17984
C          3.65809        -3.53350         0.50366
C          4.92239        -2.79895         0.14564
C          6.14095        -3.53283         0.33913
C          7.37413        -2.82771         0.35977
C          8.60462        -3.54452         0.53668
C          9.82558        -2.80991         0.57081
C         -8.51637        -5.01241         0.38700
C         -7.30055        -5.66292         0.37493
C         -6.08162        -4.99526        -0.06431
C         -4.93857        -5.72478        -0.29778
C         -3.76358        -5.13320        -1.06846
C         -2.46527        -5.77816        -0.66414
C         -1.27213        -5.04383        -0.63368
C         -0.04579        -5.75375        -0.50542
C          1.20587        -4.99260        -0.50887
C          2.51112        -5.71280        -0.35413
C          3.70585        -4.98707         0.08874
C          4.89006        -5.68171         0.25663
C          6.12819        -4.95133         0.44723
C          7.35210        -5.66361         0.60049
C          8.56831        -4.95113         0.66255
C         -7.22866        -7.06018         0.70771
C         -6.06837        -7.78777         0.51812
C         -4.88415        -7.13864         0.00323
C         -3.68642        -7.86108        -0.11078
C         -2.44544        -7.17647        -0.41371
C         -1.21850        -7.87788        -0.35198
C          0.00771        -7.16182        -0.46624
C          1.27480        -7.86063        -0.38831
C          2.47549        -7.18202        -0.24261
C          3.71802        -7.85898         0.03289
C          4.89985        -7.13365         0.22559
C          6.14249        -7.81848         0.50652
C          7.31619        -7.10081         0.67651
C         -6.01668        -9.20458         0.80169
C         -4.86321        -9.90984         0.65462
C         -3.63752        -9.25971         0.24687
C         -2.43559        -9.95166         0.24356
C         -1.19041        -9.30768        -0.07647
C          0.00280        -9.99896        -0.08401
C          1.27961        -9.36156        -0.55908
C          2.53312       -10.00808        -0.02580
C          3.70046        -9.30851         0.15821
C          4.95389        -9.96574         0.48160
C          6.11020        -9.26271         0.61948
O          2.05009         5.56315        -2.03171
O          1.31538        -9.60082        -2.02354
H          2.03610        -9.04409        -2.38912
O          3.74571        -3.58297         1.97163
H          2.81944        -3.64865         2.30522
O         -5.16254         2.97415         1.23097
O         -5.66981        -3.43988        -2.55879
H         -5.39630        -2.79108        -3.24724
O         -7.36915        -0.98901        -1.98221
O         -5.44753        -2.92394         1.02722
H         -5.97511        -3.20857         1.80372
O         -9.17033        -3.91836        -1.63488
H         -8.95243        -3.11695        -2.15964
O         -4.03429         5.27006        -2.18183
H         -3.26031         4.93449        -2.68402
O         -3.99148        -5.57108        -2.45277
H         -4.75832        -5.03880        -2.78534
O          6.87922         5.42329         1.51172
O          3.79289        -0.95854        -2.07566
H          3.09319        -0.41915        -2.50320
O         -1.85504         1.14127        -2.43023
O         -4.45249        -1.01217        -2.61698
O          2.04332        -5.21747        -1.69667
O          1.37713        -3.15133         1.24019
H         12.01827        -1.21818         0.58503
H         12.01994         1.25122         0.43437
H         10.78667         3.37563         0.21877
H          9.64809         5.38649        -0.39255
H          8.30950         7.89175        -0.23463
H          7.10129         9.84222         0.24586
H          4.97338        11.08333         0.32355
H          2.48695        11.07525         0.29066
H          0.01991        11.04987         0.33764
H         -2.42831        11.02586         0.47849
H         -4.86405        11.00918         0.77220
H         -6.98141         9.75288         1.02358
H         -8.19802         7.60148         1.04685
H         -9.38988         5.41157         1.13715
H        -10.60997         3.27820         1.22716
H        -11.79218         1.14652         1.47688
H        -11.81096        -1.32278         1.36741
H        -10.72387        -3.41319         0.68648
H         -9.41557        -5.56152         0.70572
H         -8.14105        -7.56449         1.05968
H         -6.93568        -9.70187         1.14525
H         -4.83346       -10.98543         0.88303
H         -2.42415       -11.02015         0.50717
H          0.00706       -11.07831         0.13334
H          2.54336       -11.10625         0.05730
H          4.95444       -11.06076         0.58699
H          7.05164        -9.78635         0.84335
H          8.25694        -7.64029         0.86557
H          9.51106        -5.50461         0.78868
H         10.77451        -3.35450         0.68972
