         429
 CSIRO Nanostructure Databank - Neutral Graphene Oxide Data Set
C          1.46446         4.23225        -3.39296
C          0.37043         5.01091        -3.64798
C          1.42743         7.03217        -2.72858
C          0.39254         6.42291        -3.39256
C          1.48101         8.47614        -2.51127
C          0.39168         9.30263        -2.90079
C          1.54309        11.31119        -2.14115
C          0.41713        10.66886        -2.71423
C          1.57513        12.74303        -1.93063
C          0.52014        13.59323        -2.35059
C          1.67256        15.54696        -1.45245
C          0.58492        14.95689        -2.15187
C          1.63851        16.93112        -1.03391
C          0.66423        17.84222        -1.50537
C          1.22491        19.46259         0.21961
C          0.52981        19.11424        -0.96542
C          1.12682        20.79783         0.81940
C          0.07084        21.62418         0.47441
C          1.23235        23.71560         1.00378
C          0.09477        23.03997         0.61177
C          1.32264        25.18042         1.05226
C          0.25429        25.97932         0.60891
C          1.31800        27.99790         1.47143
C          0.25685        27.35558         0.82145
C          1.24879        29.46051         1.73369
C          0.28102        30.31931         1.02347
C          1.33034        32.34723         1.88270
C          0.28285        31.68402         1.19543
C          1.31593        33.81862         2.22849
C          0.01727        34.50648         1.93148
C          1.07393        36.09822         0.39808
C         -0.07412        35.56762         1.09176
C          0.98469        37.27338        -0.38559
C          3.84438         4.15031        -2.80917
C          2.64460         4.81483        -2.81141
C          3.82213         6.86432        -1.92609
C          2.50495         6.15267        -2.12230
C          3.73106         8.25483        -1.34774
C          2.60943         9.09276        -1.93148
C          3.85045        11.14257        -1.25002
C          2.64958        10.50143        -1.75297
C          3.87043        12.53600        -1.07207
C          2.72262        13.33867        -1.33062
C          3.86510        15.34263        -0.29725
C          2.74693        14.74378        -1.02433
C          3.76073        16.63917         0.31565
C          2.52351        17.34354         0.00661
C          3.76333        19.29932         1.91858
C          2.10857        18.48873         0.71387
C          3.54778        20.69713         1.88754
C          2.24495        21.37802         1.59577
C          3.68991        23.62030         1.55249
C          2.33346        22.92075         1.58326
C          3.56769        25.01472         2.12935
C          2.42801        25.83114         1.66839
C          3.66033        27.87181         2.39172
C          2.44257        27.23226         1.89386
C          3.69704        29.35877         2.77796
C          2.44756        30.14501         2.35308
C          3.76740        32.22615         1.95715
C          2.55826        31.60896         2.10850
C          3.81259        33.71808         1.67825
C          2.46080        34.32275         1.39979
C          3.48602        35.98584        -0.12185
C          2.33755        35.43876         0.54645
C          3.37499        37.17411        -0.90307
C          2.09679        37.80975        -1.00825
C          6.26374         4.09637        -2.40018
C          5.06620         4.78234        -2.38118
C          6.27979         6.85327        -1.66347
C          5.01609         6.18537        -1.97164
C          6.26525         8.24888        -1.33334
C          5.05325         8.98242        -1.30429
C          6.25871        10.99248        -0.44691
C          5.03918        10.36314        -1.06098
C          6.33686        12.48149        -0.55456
C          5.16198        13.29620        -0.96780
C          6.24422        15.23236         0.23190
C          5.06106        14.60794        -0.22654
C          6.18659        16.55632         0.77503
C          4.92341        17.23528         0.97381
C          6.25149        19.07947         2.05049
C          4.96373        18.52606         1.67751
C          6.36889        20.36805         2.71191
C          4.53903        21.53074         2.48103
C          6.06530        23.51426         2.49273
C          4.79161        22.87138         2.25618
C          6.14275        24.91830         2.48623
C          4.85726        25.68574         2.55680
C          6.12451        27.86755         2.65355
C          4.82962        27.15767         2.53911
C          6.11703        29.27862         2.19385
C          4.97803        30.00598         2.28550
C          6.03643        31.85655         1.02572
C          5.07922        31.51170         2.15435
C          5.95825        33.20453         0.37779
C          4.84101        34.09474         0.64774
C          5.85436        35.75488        -0.85389
C          4.74065        35.28536        -0.07819
C          5.75470        36.99898        -1.55617
C          4.51227        37.68623        -1.56821
C          8.71241         4.03416        -2.04446
C          7.50577         4.73764        -2.06502
C          8.80925         6.84988        -1.71381
C          7.47945         6.13951        -1.74433
C          8.75555         8.22786        -1.13996
C          7.52509         8.95117        -1.13470
C          8.81087        11.08539        -0.97827
C          7.53041        10.31400        -0.85640
C          8.77407        12.44398        -0.32089
C          7.52035        13.14359        -0.25547
C          8.72311        15.21355         0.33718
C          7.49899        14.54381         0.09693
C          8.69086        16.57989         0.71021
C          7.45347        17.20123         1.01252
C          8.73386        19.07994         2.04583
C          7.45566        18.48065         1.64448
C          8.73180        20.58027         2.44881
C          7.43224        21.23883         2.55418
C          8.65013        23.49309         2.46558
C          7.33309        22.72168         2.42835
C          8.61780        24.95591         2.64965
C          7.40318        25.62005         2.56534
C          8.68278        27.80704         2.23470
C          7.41873        27.11086         2.64480
C          8.63488        29.14756         1.74119
C          7.29781        29.71126         1.35690
C          8.44632        31.69705         0.39813
C          7.33169        31.16831         1.02659
C          8.35938        32.99277        -0.27875
C          7.15823        33.73746        -0.26730
C          8.21012        35.51895        -1.58554
C          7.07891        35.01283        -0.88751
C          8.12319        36.79923        -2.24459
C          6.89688        37.50540        -2.22579
C         11.09801         3.86616        -1.33608
C          9.92242         4.63159        -1.53061
C         11.00079         6.57596        -0.32361
C          9.91913         5.99303        -1.18582
C         11.13035         8.07103        -0.48548
C          9.96310         8.84370        -0.72088
C         11.21456        10.90805        -0.30254
C         10.01886        10.26962        -0.58794
C         11.26572        12.41412        -0.43438
C          9.96719        13.12178        -0.11861
C         11.21814        15.19906         0.41716
C          9.97591        14.51214         0.20119
C         11.23850        16.56967         0.72691
C          9.96958        17.38120         0.62346
C         11.19278        19.25296         1.79473
C         10.00431        18.57651         1.53830
C         11.18744        20.63944         2.27536
C          9.97883        21.32397         2.37954
C         11.22969        23.49810         2.85579
C          9.92143        22.74843         2.75476
C         11.24239        25.00163         2.80663
C          9.89226        25.71995         2.76930
C         11.17299        27.83333         2.15568
C          9.88420        27.11969         2.30229
C         11.11674        29.29201         1.70728
C          9.78993        29.82375         1.32379
C         10.86698        31.49943        -0.16804
C          9.70400        31.00140         0.51529
C         10.65321        32.60738        -1.14680
C          9.46595        33.48102        -1.00204
C         10.53868        35.27258        -2.36437
C          9.40223        34.74355        -1.65669
C         10.47072        36.57262        -2.97363
C          9.26083        37.30813        -2.90966
C         13.48766         3.72644        -0.83388
C         12.31044         4.46788        -0.87056
C         13.52114         6.50863        -0.11588
C         12.31179         5.84967        -0.45240
C         13.52653         7.93029         0.07366
C         12.35560         8.71031        -0.19212
C         13.62360        10.79133         0.28085
C         12.40655        10.14451        -0.09001
C         13.57520        12.20926         0.65160
C         12.42748        13.04863         0.27579
C         13.72849        15.10097         0.65355
C         12.43596        14.40476         0.48489
C         13.75353        16.60402         0.83275
C         12.44887        17.28611         1.01717
C         13.73723        19.39280         1.50427
C         12.44346        18.60605         1.45861
C         13.68261        20.53984         2.51277
C         12.42624        21.35896         2.40977
C         13.68554        23.47563         2.37821
C         12.46444        22.74930         2.54348
C         13.66968        24.90200         2.17983
C         12.46101        25.66674         2.30299
C         13.60050        27.72051         1.56500
C         12.44882        27.06744         1.99561
C         13.62657        29.16165         1.18404
C         12.36452        30.06475         1.26043
C         13.31433        31.57360        -0.60697
C         12.12025        30.93988         0.02037
C         13.16118        32.57415        -1.69725
C         11.81163        33.14717        -1.92634
C         12.83809        35.03596        -3.16091
C         11.73619        34.52455        -2.47181
C         12.79395        36.33488        -3.76454
C         11.60755        37.08553        -3.64646
C         15.97475         3.71171        -0.90622
C         14.74762         4.27347        -0.24533
C         16.00062         6.43602        -0.09997
C         14.76471         5.78066        -0.15606
C         16.08501         7.81685         0.39595
C         14.74232         8.60948         0.50306
C         16.08640        10.73351         0.65553
C         14.81944        10.07672         0.49070
C         16.14070        12.13352         0.83297
C         14.89710        12.88780         1.02076
C         16.15677        15.00382         1.11580
C         14.94564        14.34689         0.93584
C         16.14746        16.41387         1.44064
C         14.98834        17.18454         1.40054
C         16.12426        19.20551         2.24661
C         14.97742        18.56669         1.79785
C         16.18432        20.65118         2.43198
C         14.95626        21.34619         2.43309
C         16.16706        23.43342         2.21026
C         14.92616        22.75232         2.37033
C         16.10197        24.80821         1.79175
C         14.88208        25.54437         1.83483
C         15.94133        27.45178         0.62069
C         14.95930        27.05161         1.71168
C         15.86372        28.65296        -0.06535
C         14.78580        29.61771         0.32030
C         15.77397        31.31776        -1.36843
C         14.66599        30.92538        -0.42976
C         15.55588        32.42640        -2.35565
C         14.20188        33.01861        -2.46203
C         15.15650        34.68403        -4.20780
C         13.99275        34.14774        -3.40956
C         15.14191        36.12334        -4.56557
C         13.95224        36.85597        -4.42226
C         18.37278         3.81158        -1.46273
C         17.15495         4.41966        -0.97326
C         18.43436         6.50689        -0.53266
C         17.20953         5.79529        -0.51812
C         18.49566         7.89742        -0.15048
C         17.32275         8.57937         0.24832
C         18.56250        10.67372         0.46112
C         17.33742         9.99310         0.48803
C         18.64044        12.17961         0.45546
C         17.36214        12.87299         0.84442
C         18.71427        14.96124         1.14040
C         17.38301        14.24286         1.09609
C         18.65390        16.30819         1.83983
C         17.35880        16.95378         2.06799
C         18.62894        19.11663         2.64168
C         17.34333        18.42750         2.48486
C         18.64505        20.53167         2.82654
C         17.42957        21.33952         2.59543
C         18.60673        23.58985         2.22448
C         17.41357        22.76784         2.40348
C         18.53245        24.78066         1.42704
C         17.25952        25.37574         1.21969
C         18.32398        27.13546        -0.31067
C         17.09511        26.57586         0.38585
C         18.23753        28.52974        -0.77839
C         16.96864        29.13272        -0.84899
C         18.05991        30.94541        -2.23627
C         16.78272        30.27255        -1.80903
C         17.92485        32.02442        -3.22274
C         16.56879        32.63684        -3.45471
C         17.71609        34.69183        -4.51420
C         16.47364        33.93455        -4.22169
C         17.59461        36.03925        -4.97621
C         16.32981        36.70536        -5.03008
C         19.55469         4.48951        -1.43844
C         20.84767         6.54754        -0.95393
C         19.62774         5.84963        -0.97048
C         20.91329         7.87324        -0.52724
C         19.75783         8.57433        -0.13420
C         21.00050        10.63676         0.55209
C         19.79958         9.96738         0.28051
C         21.00835        11.95416         1.10114
C         19.87345        12.71955         1.15008
C         21.07222        14.83981         1.94249
C         19.77254        14.06943         1.83347
C         21.06259        16.17152         2.14531
C         19.80669        16.92288         2.26270
C         20.99133        18.91887         3.18994
C         19.80452        18.31644         2.72562
C         20.99221        20.25782         3.55568
C         19.85314        21.04886         3.35418
C         21.01656        24.00543         2.47178
C         19.86304        23.29944         2.79781
C         20.95450        25.01893         1.50073
C         19.73120        25.44184         0.99285
C         20.80847        27.45119        -0.16933
C         19.68376        26.44768        -0.15930
C         20.68284        28.68622        -0.71907
C         19.41875        29.24052        -1.12757
C         20.47322        31.31143        -2.15929
C         19.31360        30.49161        -1.84969
C         20.40025        32.43785        -2.91433
C         19.17209        32.80279        -3.64161
C         20.13882        34.92374        -4.56011
C         18.99903        34.16084        -4.24421
C         20.02047        36.20314        -5.11348
C         18.76654        36.76733        -5.30071
O          8.07852        23.08724         1.17333
O          1.30775        29.78545         3.18634
O          2.57568        18.56674         2.02269
O         14.79813        29.84832         1.77276
O         11.24206        28.94638         3.11258
O         19.95539        22.35689         3.82934
O          3.89864        25.12392         3.53312
O         13.93264        16.03729        -0.50454
O         16.23735        32.62274        -4.85433
O          8.81476        19.48470         3.44028
O         10.87488        32.19638        -2.55403
O         13.98084        12.39816         2.05803
O         10.65923        25.58413         4.01661
O         10.54010        23.00036         4.05249
O          5.28943        20.85164         3.44051
O          5.41492        31.90538        -0.30074
O         14.28206        32.03017         0.42954
O         14.11252        33.88873        -4.85236
O          1.90399        22.20721         2.76625
O         15.40024         8.01203         1.66881
O         17.15545        17.35159         3.46793
O         18.63801        31.72430        -4.46771
O         16.28320        32.64439        -1.07789
O         17.37649        26.28758        -1.04347
O          6.86729        27.64563         3.90354
O         19.87911        25.64032        -1.36014
H         18.98214        25.34153        -1.63966
O          4.01328        23.74722         0.13680
H          4.94968        24.02830         0.05857
O          6.98483        29.07040         0.04376
H          6.38308        29.67963        -0.44104
O         12.58218        31.02265         2.31603
H         13.46240        31.43733         2.14611
O         18.82837        12.55061        -0.98418
H         19.62943        12.07244        -1.29276
O          8.98847        11.35808        -2.41846
H          9.86646        11.80870        -2.51033
O         13.63345        19.90557         3.82274
H         13.46960        20.59817         4.49674
O         11.49806        12.64030        -1.88252
H         11.57322        13.61022        -2.01909
O          2.01315         5.84059        -0.75259
H          2.57620         5.11560        -0.40454
O         13.90548        19.98438         0.18362
H         14.05067        19.25670        -0.45759
O         10.54411         6.37405         1.08550
H         11.32243         6.51662         1.66659
O         16.16472        29.68105        -3.00441
H         16.82187        29.08793        -3.42732
O          1.60818        33.96399         3.66761
H          1.29976        34.85256         3.94415
O          6.13229        10.73844         1.02091
H          5.72689         9.85019         1.13125
O          3.37757         8.06771         0.07261
H          2.65034         7.39441         0.08704
O         19.26949        13.82130         3.17590
H         19.94510        13.30986         3.66733
O          5.45980        13.69473        -2.37115
H          4.72508        14.27702        -2.66354
O         15.52639        27.51617         2.98344
H         15.42412        28.49870         2.99001
O          3.72705        29.42396         4.22487
H          2.82277        29.19497         4.53713
O         19.12672        15.21245        -0.22565
H         19.04492        14.35826        -0.72377
O          4.25419        34.34149         2.93820
H          3.52134        34.17269         3.58287
O          5.70407        31.98133         3.37590
H          5.22692        31.57588         4.13150
O         14.78809         3.78271         1.16542
H         15.54166         4.23562         1.60213
O          9.14745         7.08183        -3.14954
H          8.48139         7.71016        -3.50395
O          9.96531        17.94743        -0.75432
H         10.82515        18.40337        -0.88170
H          1.48948         3.17685        -3.70194
H         -0.51564         4.57926        -4.13376
H         -0.44382         7.01358        -3.79105
H         -0.50742         8.85371        -3.34268
H         -0.46053        11.25616        -3.01503
H         -0.36346        13.17429        -2.84986
H         -0.25046        15.58532        -2.48814
H          0.02896        17.55995        -2.35552
H         -0.17005        19.82462        -1.42573
H         -0.80469        21.18657        -0.02605
H         -0.79274        23.59087         0.27126
H         -0.61679        25.52458         0.11958
H         -0.61394        27.93475         0.48750
H         -0.53222        29.85779         0.44743
H         -0.54898        32.27874         0.79008
H         -0.87121        34.16312         2.48239
H         -1.04386        36.06755         0.94469
H          0.00867        37.77100        -0.48452
H          3.90260         3.13141        -3.22299
H          2.00500        38.72522        -1.60991
H          6.27707         3.03514        -2.69144
H          4.42519        38.62489        -2.13537
H          8.72098         2.96496        -2.30311
H          6.82717        38.47032        -2.74957
H         11.10393         2.80027        -1.60759
H          9.20308        38.28992        -3.40234
H         13.47942         2.67762        -1.16822
H         11.55021        38.08111        -4.11033
H         15.95438         2.65792        -1.22384
H         13.93028        37.89997        -4.76913
H         18.33021         2.77440        -1.82565
H         16.31591        37.76013        -5.34358
H         20.47933         4.00747        -1.78847
H         21.76341         6.03704        -1.28530
H         21.88828         8.37971        -0.52615
H         21.95841        10.10589         0.47347
H         21.95833        12.33174         1.50808
H         22.03181        14.30255         1.90484
H         22.01893        16.70403         2.24805
H         21.90818        18.32981         3.31801
H         21.88795        20.71901         3.99091
H         21.96858        23.75031         2.95385
H         21.88905        25.50062         1.18563
H         21.81058        27.11073         0.12562
H         21.58271        29.31082        -0.81353
H         21.43103        31.06176        -1.68169
H         21.28214        33.09054        -2.98616
H         21.14088        34.50713        -4.39206
H         20.92540        36.76948        -5.37284
H         18.66990        37.79216        -5.68619
