         324
 CSIRO Nanostructure Databank - Neutral Graphene Oxide Data Set
C          1.24091         1.97727         1.08948
C          1.15586         3.36348         0.90977
C          2.44461         1.30248         0.94190
C          2.29373         4.12221         0.53168
C          1.03112         6.30397         0.44793
C          1.00984         7.70338         0.32006
C          2.21043         5.56617         0.33528
C          2.18771         8.49355         0.29471
C          1.00778        10.67698        -0.18375
C          1.02558        12.02802        -0.40974
C          2.16527         9.91105         0.18335
C          2.27756        12.81063        -0.42290
C          1.19785        15.13245        -0.70939
C          1.23676        16.52642        -0.55786
C          2.27381        14.30534        -0.31837
C          2.28037        17.14192         0.17043
C          2.48753        18.58202         0.33945
C          3.63802         2.01702         0.61061
C          3.52192         3.43119         0.37141
C          4.88149         1.35467         0.56744
C          4.69852         4.11349        -0.19320
C          3.42843         6.34261         0.00093
C          3.46986         7.80155         0.31920
C          4.69252         5.60940        -0.28999
C          4.67528         8.46593         0.39279
C          3.39031        10.65450         0.49722
C          3.49581        12.08299         0.09086
C          4.73026         9.91670         0.63027
C          4.72559        12.79608         0.57144
C          3.37692        14.92341         0.30367
C          3.22603        16.25158         0.70022
C          4.70604        14.28103         0.59500
C          5.15856        17.27153         0.95844
C          3.67180        19.23573         0.55947
C          5.02089        18.66757         0.63051
C          6.17599         2.11444         0.54453
C          6.01974         3.42308        -0.19723
C          7.39443         1.35417         0.07792
C          7.25791         4.22381        -0.38599
C          5.99614         6.28614         0.01947
C          5.97441         7.74559         0.34140
C          7.24396         5.58024        -0.38990
C          7.20846         8.53683         0.14430
C          6.00052        10.66973         0.39846
C          5.99887        12.05345         0.38925
C          7.21937         9.90338         0.17545
C          7.21429        12.83389         0.22849
C          5.96153        15.01256         0.07776
C          6.17628        16.46635         0.50821
C          7.23564        14.20013         0.15282
C          7.39102        17.14101         0.11157
C          6.16956        19.32691         0.22394
C          7.41160        18.60810         0.08522
C          8.52174         2.00171        -0.41178
C          8.46367         3.44821        -0.75729
C          9.77796         1.34848        -0.54003
C          9.75761         4.20715        -0.93386
C          8.48377         6.36858        -0.57753
C          8.45927         7.82318        -0.23871
C          9.78339         5.64430        -0.60596
C          9.73744         8.46587         0.19939
C          8.49302        10.64568        -0.20672
C          8.48476        12.06348         0.31768
C          9.78495         9.93017         0.15372
C          9.78026        12.79005         0.36064
C          8.50037        14.90228        -0.33557
C          8.52852        16.40461        -0.14917
C          9.79501        14.24243         0.10856
C          9.78490        17.09871        -0.46345
C          8.61157        19.27471        -0.14198
C          9.84607        18.57138        -0.31522
C         11.01069         2.02149        -0.78871
C         11.03210         3.47136        -0.91545
C         12.22768         1.32622        -0.67629
C         12.21483         4.20019        -0.96591
C         10.98301         6.28200        -0.39459
C         11.02418         7.67937         0.09844
C         12.24826         5.62268        -0.65932
C         12.28393         8.43616         0.03840
C         11.00205        10.58277         0.24959
C         11.04507        12.03670         0.22691
C         12.26439         9.83635         0.23988
C         12.23299        12.72857         0.28239
C         11.00342        14.88458         0.01447
C         11.07791        16.31235        -0.37659
C         12.26110        14.17601         0.20974
C         12.33406        17.04314        -0.14059
C         11.07288        19.20782        -0.32727
C         12.32776        18.49693        -0.19826
C         13.47558         1.93420        -1.09851
C         13.44452         3.48971        -1.33103
C         14.79146         1.37335        -0.84456
C         14.73309         4.24447        -1.36203
C         13.44443         6.34969        -0.58910
C         13.49923         7.74605        -0.20584
C         14.70536         5.72741        -1.04051
C         14.74840         8.43731        -0.08458
C         13.50223        10.52098         0.33407
C         13.47854        11.97685         0.54918
C         14.74578         9.84408         0.23206
C         14.77736        12.71723         0.54246
C         13.46451        14.88050         0.17535
C         13.50291        16.32298         0.09459
C         14.74853        14.14826         0.12928
C         14.76168        17.02166         0.32512
C         13.49327        19.19059         0.03762
C         14.72296        18.51932         0.58263
C         15.99311         2.10416        -1.00457
C         16.00099         3.52624        -1.22031
C         17.24064         1.45014        -0.85846
C         17.20847         4.26644        -1.24386
C         15.99314         6.39129        -0.78071
C         15.99133         7.74978        -0.33137
C         17.17375         5.71535        -1.11226
C         17.24000         8.42448        -0.17609
C         15.99810        10.56394         0.37339
C         16.04894        11.96029         0.45446
C         17.23043         9.70514         0.62731
C         17.25706        12.73076         0.57902
C         16.04560        14.90508         0.20304
C         15.95803        16.36247         0.42157
C         17.28204        14.14580         0.53176
C         17.16662        17.11962         0.92591
C         16.01339        19.16194         0.13296
C         17.21097        18.51476         0.30133
C         18.45897         2.14850        -0.98249
C         18.44624         3.55789        -1.22837
C         19.68144         1.45347        -0.70402
C         19.72780         4.25539        -1.42079
C         18.40219         6.51549        -1.25645
C         18.41629         7.86466        -0.66630
C         19.76482         5.75843        -1.44020
C         19.65673         8.64725        -0.72343
C         18.54995        10.48931         0.61234
C         18.53546        12.02380         0.75199
C         19.75911         9.92688        -0.00135
C         19.79052        12.76049         0.55253
C         18.49368        14.87211         0.65680
C         18.48572        16.34666         0.82159
C         19.75643        14.20552         0.60453
C         19.75622        17.10275         0.49313
C         18.44873        19.15427        -0.02407
C         19.69276        18.51869         0.05632
C         20.91077         2.10427        -0.60543
C         21.00246         3.51413        -1.04533
C         22.08393         1.46501        -0.14973
C         22.19941         4.28559        -0.66215
C         21.00226         6.43260        -1.05851
C         21.01541         7.89175        -0.99963
C         22.17987         5.71265        -0.72872
C         22.25946         8.58476        -0.63231
C         20.96405        10.63815         0.03272
C         20.97183        12.03464         0.40097
C         22.23343        10.00297        -0.31642
C         22.25308        12.72862         0.59399
C         20.96119        14.94094         0.46307
C         20.98233        16.34096         0.18040
C         22.23607        14.25458         0.67364
C         22.14679        17.02087        -0.17232
C         20.90032        19.15645        -0.28733
C         22.14137        18.45667        -0.33510
C         23.31069         2.16007        -0.02113
C         23.35412         3.59218        -0.26238
C         24.47911         1.50559         0.41339
C         24.58370         4.29994        -0.06732
C         23.42053         6.41920        -0.53547
C         23.43762         7.85443        -0.61252
C         24.60119         5.70712        -0.23076
C         24.75347         8.54099        -0.89070
C         23.44394        10.68225        -0.17289
C         23.52234        12.06137         0.24478
C         24.68460        10.04385        -0.67573
C         24.71990        12.75033         0.32789
C         23.50083        15.00015         0.40577
C         23.40100        16.24265        -0.47545
C         24.77610        14.23280         0.34265
C         24.67063        17.05684        -0.42647
C         23.35693        19.14041        -0.53273
C         24.62558        18.47843        -0.52976
C         25.71220         2.18886         0.56050
C         25.77873         3.59673         0.29218
C         26.88120         1.50495         0.99211
C         27.04360         4.26559         0.35084
C         25.84241         6.43238         0.12108
C         25.90777         7.91848        -0.11413
C         27.12005         5.70622         0.20554
C         27.23293         8.54174        -0.22607
C         25.98549        10.75114        -0.54165
C         26.01275        11.97039         0.34957
C         27.26729         9.96154        -0.60419
C         27.27283        12.80193         0.18726
C         25.88817        14.86695        -0.51517
C         25.89657        16.38424        -0.44510
C         27.22801        14.29375        -0.07656
C         27.10496        17.09232        -0.63690
C         25.84488        19.19083        -0.61119
C         27.08662        18.52009        -0.65938
C         28.11565         2.15877         1.05871
C         28.20090         3.52781         0.66292
C         29.31642         1.48982         1.51527
C         29.52366         4.15431         0.55163
C         28.32390         6.40675         0.24245
C         28.39497         7.84654         0.07890
C         29.60129         5.67198         0.30002
C         29.68658         8.53606         0.17790
C         28.56034        10.69092        -0.39119
C         28.53388        12.13235        -0.08538
C         29.75931         9.94195         0.01667
C         29.72569        12.85178        -0.10432
C         28.47264        14.95456        -0.44763
C         28.38013        16.37204        -0.83097
C         29.69434        14.29881        -0.26770
C         29.69022        17.18272        -0.73676
C         28.32471        19.25384        -0.59251
C         29.55864        18.63315        -0.49198
C         30.51667         2.13817         1.61240
C         30.67818         3.50144         1.18164
C         31.85354         4.22096         1.33622
C         30.84229         6.37499         0.67315
C         30.86995         7.82680         0.54292
C         31.93149         5.61629         1.07902
C         32.06175         8.56700         0.72084
C         30.96279        10.67659         0.17991
C         30.97946        12.13303        -0.03749
C         32.11504         9.94456         0.54040
C         32.15271        12.88111        -0.11144
C         30.94737        15.02043        -0.31478
C         30.92495        16.48006        -0.32810
C         32.13386        14.28769        -0.23883
C         31.99704        17.25125         0.08105
C         30.74974        19.34705        -0.13097
C         31.91985        18.67507         0.12718
O         29.13555        16.75105        -2.01766
O          8.42431         7.41177        -1.65162
O         19.05118         6.35444        -2.55563
O         10.31823         7.84838         1.39209
O         10.45240        16.59586        -1.69469
O         25.59601         7.41279         1.21601
O          4.10706        16.70964         1.67905
O          6.08212         6.72617         1.42273
O         20.29091         8.62408        -2.03104
O         24.42944        15.01272         1.53091
O         20.59847         3.68166        -2.45136
O         13.33445         2.58712        -2.42705
O         29.78254         4.70561        -0.78371
O         14.66869         5.24038        -2.43558
O         27.30759        13.77736         1.29512
O         15.49943        14.43598        -1.09601
O         28.09376        10.31962        -1.75645
O         25.26166        10.82965        -1.79353
O          3.96816        10.36379         1.80092
O          4.70833        13.54253         1.84513
O         14.09868        12.45465         1.81380
O         22.28621        13.44377         1.87621
O          8.93133         3.80617        -2.09511
O          3.92384         6.12682        -1.40636
O         18.70297        11.12674         1.91715
O          9.09724        12.30339         1.61679
O         19.37394        16.83126         1.89627
O          3.29734        12.26358        -1.34748
O         25.62235        14.52392        -1.85701
O          5.20391         3.39983        -1.39855
O          8.44542        14.72216        -1.80375
H          9.17957        15.27972        -2.17297
O         17.04994         9.22262         1.99547
H         17.35898         9.94809         2.58887
O          8.47139        10.76416        -1.65997
H          8.39764         9.86309        -2.04398
O          6.46235         2.51332         1.94327
H          6.51716         1.69632         2.48281
O         25.03027         8.28621        -2.28784
H         25.23877         9.15605        -2.70817
O         16.92993        17.30940         2.35658
H         17.81905        17.45023         2.76450
O         23.25746        15.74794        -1.83777
H         24.12665        15.27877        -2.07587
O          5.67998        15.13973        -1.35457
H          6.54578        15.12821        -1.83392
O         14.63865        18.73410         2.03075
H         15.42939        18.28362         2.42874
O         26.11353        11.40576         1.69391
H         26.25721        12.16231         2.30670
H          0.33494         1.41720         1.36057
H          0.18435         3.85700         1.04518
H          2.49599         0.21665         1.10512
H          0.07391         5.79161         0.61937
H          0.03299         8.20644         0.34044
H          0.04615        10.15013        -0.27334
H          0.07991        12.54913        -0.61858
H          0.33026        14.68061        -1.21109
H          0.43149        17.13784        -0.98962
H          1.60038        19.21609         0.17670
H          4.90878         0.27120         0.76370
H          3.62946        20.33759         0.54813
H          7.45855         0.27896         0.31208
H          6.14070        20.39272        -0.04724
H          9.82050         0.26783        -0.33426
H          8.63148        20.37484        -0.12572
H         12.23488         0.29397        -0.29834
H         11.10381        20.30588        -0.25700
H         14.85430         0.34089        -0.47000
H         13.47257        20.29139         0.04959
H         17.25922         0.37021        -0.65261
H         15.99671        20.19879        -0.23775
H         19.62037         0.38414        -0.45172
H         18.40790        20.19139        -0.39130
H         22.04272         0.39818         0.11693
H         20.88631        20.23006        -0.52848
H         24.43943         0.42689         0.62691
H         23.33483        20.23519        -0.64952
H         26.81226         0.43965         1.25741
H         25.82585        20.29068        -0.64022
H         29.23393         0.43935         1.83004
H         28.26830        20.34714        -0.47714
H         31.39446         1.61126         2.01517
H         32.73905         3.71782         1.75162
H         32.88658         6.11223         1.30198
H         32.98767         8.04354         0.99578
H         33.07496        10.46060         0.68134
H         33.13010        12.38086        -0.05842
H         33.09853        14.81340        -0.28007
H         32.93502        16.77112         0.39406
H         30.70208        20.44089        -0.02913
H         32.81508        19.23710         0.42790
