         429
 CSIRO Nanostructure Databank - Neutral Graphene Oxide Data Set
C          1.28119         3.51577         1.23415
C          0.05680         4.18020         0.96761
C          1.14258         6.40255         1.00448
C         -0.00339         5.53003         0.72952
C          1.18445         7.78442         0.49116
C          0.04185         8.40166        -0.06341
C          1.31937        10.41268        -0.88402
C          0.04861         9.67224        -0.59191
C          1.22889        11.92857        -0.75931
C          0.03982        12.60531        -1.00498
C          1.14418        14.79280        -1.04926
C          0.01235        14.01340        -1.18727
C          1.12629        16.22466        -1.25149
C         -0.03550        16.98126        -1.26637
C          1.13958        19.14587        -1.22487
C         -0.02582        18.40352        -1.25095
C          1.16470        20.59082        -1.02423
C         -0.05778        21.37296        -1.11953
C          1.09094        23.41553        -0.35142
C         -0.09516        22.70025        -0.85113
C          1.13884        24.89864        -0.29482
C         -0.06355        25.63114        -0.21688
C          1.16134        27.69755         0.15566
C         -0.05645        26.99491         0.01855
C          1.19370        29.10264         0.50166
C          0.01922        29.80154         0.87294
C          1.28404        31.84069         1.30651
C          0.07287        31.11965         1.29774
C          1.36204        33.18693         1.86199
C          0.28915        33.75542         2.60133
C          1.61452        35.73877         3.08363
C          0.40864        35.00281         3.18262
C          1.76545        37.00051         3.74619
C          3.73444         3.52985         1.15524
C          2.49182         4.21230         1.24078
C          3.83510         6.40535         1.29915
C          2.47786         5.69021         1.33272
C          3.75653         7.88727         0.91066
C          2.42315         8.57212         0.56045
C          3.69560        10.57635        -0.17138
C          2.50569         9.86055        -0.13679
C          3.67431        11.98730        -0.52355
C          2.44688        12.65895        -0.64646
C          3.69381        14.83230        -0.95648
C          2.41212        14.16182        -0.50863
C          3.68647        16.22298        -1.20970
C          2.41345        16.91012        -1.45817
C          3.69289        19.09786        -1.08371
C          2.42590        18.45488        -1.42726
C          3.66377        20.51749        -0.58677
C          2.36624        21.24079        -0.83131
C          3.65950        23.43035        -0.56804
C          2.39985        22.66214        -0.44161
C          3.63420        24.83756        -0.37410
C          2.37891        25.56624        -0.20085
C          3.62005        27.71241         0.05085
C          2.38733        26.98928        -0.01092
C          3.65097        29.11433         0.20014
C          2.42934        29.80411         0.49338
C          3.66508        31.93751         0.61491
C          2.46541        31.19898         0.81922
C          3.63347        33.38841         0.86716
C          2.54849        33.92965         1.71101
C          3.94559        35.91388         2.27858
C          2.69919        35.19898         2.33200
C          4.08464        37.13828         3.00084
C          2.95609        37.67230         3.71285
C          6.16224         3.52170         0.83628
C          4.93317         4.19099         0.84931
C          6.17142         6.34802         0.39448
C          4.83660         5.64173         0.42166
C          6.16775         7.76789         0.32741
C          4.99041         8.53804         0.43151
C          6.15708        10.62603        -0.25491
C          4.97065         9.93000         0.09065
C          6.11822        11.98809        -0.66191
C          4.91048        12.69869        -0.69175
C          6.13854        14.82988        -1.20455
C          4.90311        14.12353        -0.96785
C          6.13226        16.25691        -1.30186
C          4.89491        16.95722        -1.29925
C          6.17042        19.10758        -1.19419
C          4.89515        18.40566        -1.18741
C          6.18706        20.58392        -0.82444
C          4.85911        21.28312        -1.18771
C          6.08591        23.47352        -0.91588
C          4.86997        22.76065        -0.82866
C          6.07860        24.88278        -0.71470
C          4.86194        25.53912        -0.40021
C          6.16437        27.76083        -0.22220
C          4.87346        26.95862        -0.01146
C          6.05227        29.21515        -0.35680
C          4.87190        29.87381        -0.01808
C          6.02208        32.09663        -0.12709
C          4.84479        31.32873         0.10954
C          6.14641        33.46556         0.30379
C          4.91778        34.16940         0.75177
C          6.28980        36.06492         1.56157
C          5.06210        35.41079         1.54449
C          6.44526        37.25608         2.34495
C          5.32961        37.78665         3.03103
C          8.61985         3.51710         0.63628
C          7.39288         4.19546         0.59071
C          8.62956         6.30652         0.13915
C          7.37527         5.62966         0.38492
C          8.64707         7.67658        -0.07587
C          7.45266         8.46329         0.20590
C          8.70703        10.53878        -0.65686
C          7.45974         9.96243        -0.08457
C          8.63376        11.91248        -1.22655
C          7.34514        12.65793        -1.15775
C          8.60166        14.83470        -1.34622
C          7.36807        14.13243        -1.25543
C          8.57443        16.25860        -1.47713
C          7.36442        16.97426        -1.45087
C          8.53107        19.16045        -2.08917
C          7.34489        18.43117        -1.45508
C          8.55340        20.67832        -1.84908
C          7.34624        21.37502        -1.37958
C          8.55194        23.52033        -1.23906
C          7.33428        22.76647        -1.22195
C          8.53699        24.95180        -1.12845
C          7.28743        25.65984        -0.94360
C          8.43826        27.83123        -1.28604
C          7.28707        27.05017        -0.84907
C          8.50180        29.28166        -1.08079
C          7.18723        29.95888        -0.92766
C          8.43561        32.22713        -1.02715
C          7.15103        31.46828        -0.82997
C          8.49814        33.64246        -0.51378
C          7.33541        34.17636         0.23987
C          8.77079        36.08505         1.07040
C          7.39275        35.64722         0.60784
C          8.87715        37.24964         1.90504
C          7.72074        37.85815         2.45725
C         11.10248         3.52023         0.72807
C          9.86896         4.19242         0.50434
C         11.11367         6.30781         0.16878
C          9.87732         5.58364         0.20662
C         11.13356         7.68846        -0.13237
C          9.87124         8.31752        -0.65197
C         11.18155        10.47101        -1.05600
C          9.86352         9.82514        -0.66960
C         11.09564        11.98796        -0.76242
C          9.93839        12.66006        -1.51016
C         11.05993        14.85622        -0.95546
C          9.86583        14.15147        -1.23435
C         11.06738        16.31535        -1.03466
C          9.87170        16.96233        -1.61198
C         11.09641        19.18778        -1.40931
C          9.88973        18.45451        -1.84921
C         11.19327        20.67796        -1.70636
C          9.86503        21.43390        -1.72357
C         10.98546        23.53360        -0.96735
C          9.82099        22.84757        -1.26700
C         10.94630        24.95709        -0.49916
C          9.74641        25.65473        -1.03707
C         11.03810        27.84782        -1.10516
C          9.81816        27.06534        -1.33116
C         10.98100        29.24819        -1.17457
C          9.70377        29.95829        -1.19316
C         11.03654        32.17839        -1.24131
C          9.71055        31.45088        -1.31736
C         11.08959        33.62015        -0.79157
C          9.82613        34.34585        -0.38303
C         11.22055        36.01372         0.86552
C          9.92590        35.48768         0.56363
C         11.31777        37.20074         1.66288
C         10.14776        37.79281         2.17536
C         13.55374         3.56664         1.07094
C         12.32072         4.21549         0.74021
C         13.55192         6.34915         0.54819
C         12.33690         5.62783         0.47684
C         13.54123         7.77314         0.36695
C         12.33091         8.44395        -0.04113
C         13.49033        10.62881         0.01494
C         12.35175         9.83540        -0.31894
C         13.50236        12.01826        -0.20636
C         12.43369        12.70372        -1.02706
C         13.45788        14.91049        -0.36145
C         12.28975        14.18086        -0.70210
C         13.35241        16.39480        -0.08918
C         12.20026        17.06392        -0.79246
C         13.48493        19.21511        -0.68653
C         12.22337        18.50393        -0.97032
C         13.51560        20.62405        -0.71986
C         12.22814        21.33025        -0.81270
C         13.48291        23.54797        -0.49019
C         12.21436        22.80783        -0.63422
C         13.46013        24.98569        -0.51127
C         12.24391        25.70474        -0.69642
C         13.53181        27.78423        -0.88244
C         12.26954        27.10098        -0.85759
C         13.48003        29.20547        -1.31795
C         12.23050        29.99370        -1.15858
C         13.55270        32.10626        -1.13069
C         12.28862        31.37851        -1.12394
C         13.58223        33.50652        -0.70498
C         12.38913        34.14977        -0.31129
C         13.68782        35.99432         0.67063
C         12.42606        35.38799         0.39005
C         13.75359        37.22718         1.40408
C         12.58515        37.79336         1.91210
C         15.94529         3.48424         1.57207
C         14.77737         4.22272         1.06842
C         15.95885         6.44487         0.84743
C         14.79505         5.65595         0.77776
C         15.92487         7.87932         0.92850
C         14.70489         8.54333         0.59491
C         15.87403        10.67945         0.79736
C         14.68978         9.97080         0.52270
C         15.84150        12.14149         0.85587
C         14.57345        12.83041         0.32651
C         15.96305        14.95806        -0.04067
C         14.63478        14.25806        -0.01085
C         15.83763        16.43793         0.19396
C         14.68628        17.10529        -0.15165
C         15.91922        19.26159        -0.23553
C         14.67378        18.53672        -0.32994
C         15.92692        20.68213        -0.41684
C         14.70896        21.36434        -0.52816
C         15.88512        23.53365        -0.11795
C         14.68841        22.82550        -0.44277
C         15.75926        24.89006         0.14027
C         14.67594        25.71176        -0.30137
C         16.04052        27.89174        -0.68500
C         14.73720        27.13210        -0.56590
C         16.04696        29.27274        -1.25866
C         14.76467        29.96511        -1.48338
C         16.01898        32.13828        -1.50955
C         14.74064        31.42972        -1.35607
C         16.05360        33.64208        -1.08694
C         14.82239        34.18000        -0.51895
C         16.15505        36.08234         0.34997
C         14.89044        35.41087         0.18150
C         16.17388        37.35098         1.01895
C         15.02083        37.87575         1.55910
C         18.51888         3.39439         1.77340
C         17.23358         3.75793         1.19977
C         18.37672         6.44324         1.34965
C         17.26909         5.87092         0.79009
C         18.26278         7.85331         1.87188
C         17.09298         8.59314         1.24985
C         18.27984        10.76572         1.42270
C         17.09852        10.01537         1.16476
C         18.30975        12.18170         1.21515
C         17.10584        12.90217         0.89209
C         18.32710        15.02619         0.83722
C         17.11594        14.27935         0.67204
C         18.33077        16.45452         0.76314
C         17.00985        17.20105         0.74473
C         18.30142        19.35591         0.44502
C         17.08907        18.58297         0.15755
C         18.45242        20.66263        -0.26519
C         17.20287        21.47033        -0.61740
C         18.53086        23.56143        -0.34855
C         17.22922        22.83161         0.12330
C         18.57669        24.97535        -0.72686
C         17.65359        25.84453        -0.23461
C         18.51502        27.77404        -1.50002
C         17.41175        27.22175        -0.66097
C         18.48869        29.26073        -1.70884
C         17.23661        29.98468        -1.39076
C         18.52104        32.11094        -1.42295
C         17.27995        31.41229        -1.47973
C         18.55070        33.50809        -1.04012
C         17.35269        34.21053        -0.72409
C         18.64203        36.13634         0.13637
C         17.37089        35.47586        -0.08278
C         18.69232        37.41999         0.73534
C         17.43692        38.17273         1.09238
C         19.59145         4.24820         1.77394
C         20.75638         6.43442         1.73325
C         19.60075         5.69101         1.55161
C         20.73409         7.87436         1.73015
C         19.57344         8.59444         1.76772
C         20.76749        10.83161         1.71571
C         19.49833        10.08923         2.03251
C         20.76612        12.14564         1.40551
C         19.53776        12.89997         1.25440
C         20.74990        15.07444         1.20829
C         19.54698        14.32011         1.10237
C         20.74110        16.44718         1.10935
C         19.52788        17.16528         0.93645
C         20.82042        19.42772         0.89331
C         19.54410        18.65697         0.92090
C         20.88301        20.71570         0.50682
C         19.74986        21.38064        -0.18451
C         20.94723        23.51865        -0.82045
C         19.70982        22.85100        -0.43183
C         20.96963        24.76503        -1.33624
C         19.68447        25.50109        -1.63807
C         20.90846        27.75040        -1.88928
C         19.78854        27.02637        -1.58107
C         20.91714        29.18892        -1.92126
C         19.77778        29.95925        -1.78506
C         20.96941        32.11471        -1.48053
C         19.76580        31.40245        -1.57996
C         20.99367        33.45769        -1.11300
C         19.81030        34.15713        -0.82299
C         21.07559        36.17185        -0.04433
C         19.85069        35.49916        -0.26113
C         21.11022        37.42085         0.55998
C         19.91948        38.04613         0.95121
O          6.78025        30.78000        -2.07660
O         17.38211         4.64917         0.11378
O         19.37324        20.57843        -1.40359
O          7.78080        11.95755        -2.43314
O          3.04377         8.65178         1.91459
O         16.93668        27.99536         0.49956
O          9.06143        27.42221        -2.52669
O         16.83913        25.45357         0.83476
O         15.96046        33.22419        -2.47779
O         18.62889        19.31740         1.89750
O          5.79272        27.24685         1.10051
O          1.64955         6.21961         2.39009
O         11.84749        21.85118         0.50070
O         18.16109        28.32225        -2.80723
O          9.18455        21.33261        -3.01156
O         10.37839        31.93371        -2.52139
O         14.05858        29.40873        -2.66460
O         14.82209        12.64162         1.78620
O         10.44882        34.58854        -1.68004
O         10.15927        17.51246        -2.96053
O          2.46170        17.70153        -2.68629
O          1.70883        22.84051         0.86371
O          8.19056        33.34837        -1.92026
O          7.67501         9.47167         1.27898
O          3.91353        34.23930        -0.31891
O         17.56805        38.78969         2.38266
H         17.69482        38.08224         3.04726
O         16.39068        14.86239        -1.46508
H         15.64563        15.17468        -2.02299
O         17.24056        21.79723        -2.02747
H         18.04454        21.35802        -2.39964
O         17.36659        22.58077         1.53321
H         17.31529        23.44542         1.99490
O         19.31069        10.19431         3.50489
H         19.19129        11.14620         3.71327
O          4.27733         5.67985        -0.92349
H          4.88617         5.19738        -1.52133
O          7.15037        36.38192        -0.63691
H          6.38064        35.97151        -1.08622
O         12.82628        12.60503        -2.41833
H         12.07166        12.91836        -2.96771
O          1.60974        10.17512        -2.31718
H          0.93089        10.65563        -2.83745
O          3.77676        20.46114         0.87547
H          3.28279        21.22126         1.25663
O          2.36029        14.42886         0.94793
H          1.60263        13.92098         1.30921
O         11.41806        10.21079        -2.46725
H         10.99410        10.94711        -2.97880
O         12.98196        16.47799         1.33236
H         13.73538        16.13605         1.86114
O          4.68240        21.20177        -2.61936
H          5.49624        21.53538        -3.05397
O          4.35129         6.36433         2.64162
H          3.71510         6.86224         3.20188
O         10.76981        24.88871         0.97434
H         11.19869        24.06195         1.28842
O         11.74942        20.78397        -3.04296
H         10.99466        20.69560        -3.67087
O         10.18181        12.54185        -2.94765
H          9.28064        12.53445        -3.36287
O          9.84083         7.97928        -2.09599
H         10.52608         8.55671        -2.52348
O          6.39399        20.62521         0.61461
H          5.53332        20.39301         1.04804
O         16.68144        17.40878         2.17711
H         17.31196        18.10193         2.50047
O         10.77944        12.14925         0.63460
H         11.55730        11.88191         1.16984
O          8.22493        19.03141        -3.50092
H          8.71804        18.23949        -3.82687
O         19.35105        25.19964        -3.02297
H         19.22601        24.22988        -3.09401
O         17.95027         7.77663         3.30748
H         18.25571         8.62686         3.70929
H          1.29644         2.41661         1.25706
H         -0.84690         3.57040         0.82491
H         -0.93387         5.96507         0.34056
H         -0.91933         7.86890        -0.02079
H         -0.89780        10.07998        -0.97497
H         -0.90183        12.05318        -1.12757
H         -0.93752        14.47271        -1.49639
H         -1.00979        16.48239        -1.16550
H         -0.99644        18.90921        -1.15116
H         -0.96979        20.87819        -1.48134
H         -1.01957        23.26326        -1.04279
H         -1.02692        25.11012        -0.29748
H         -1.01577        27.52093         0.10627
H         -0.95144        29.28879         0.87581
H         -0.85764        31.60495         1.62083
H         -0.64833        33.19768         2.72722
H         -0.43041        35.42528         3.75406
H          0.90995        37.40936         4.30325
H          3.74562         2.43930         1.30841
H          3.07238        38.62917         4.24202
H          6.18733         2.44901         1.08309
H          5.44562        38.71413         3.61105
H          8.62276         2.43565         0.84140
H          7.83433        38.77070         3.06046
H         11.09135         2.44359         0.95413
H         10.22696        38.70116         2.79041
H         13.51973         2.50021         1.34069
H         12.63483        38.73011         2.48611
H         15.75123         2.70283         2.32257
H         15.06483        38.83780         2.09013
H         18.64610         2.38911         2.20551
H         17.32978        39.02099         0.35800
H         20.54398         3.84411         2.15677
H         21.71945         5.92943         1.89751
H         21.70885         8.38314         1.76394
H         21.72908        10.31558         1.84361
H         21.72790        12.65346         1.24841
H         21.70529        14.56738         1.39497
H         21.68875        16.99292         1.20953
H         21.71451        18.96244         1.33432
H         21.82525        21.27309         0.61668
H         21.88696        22.95641        -0.71243
H         21.92052        25.19710        -1.68010
H         21.86817        27.24022        -2.05729
H         21.89782        29.67379        -2.02732
H         21.92529        31.60015        -1.64673
H         21.97051        33.94554        -1.00339
H         22.02378        35.71141        -0.35044
H         22.07327        37.92353         0.72441
H         19.94093        39.03775         1.42407
