         334
 CSIRO Nanostructure Databank - Neutral Graphene Oxide Data Set
C         30.35272        57.24345        -0.06881
C         30.32848        58.67198         0.01702
C         29.11951        59.39397         0.09691
C         30.33455        61.49320         0.15886
C         29.13139        60.78884         0.17117
C         32.79344        52.88739        -0.20379
C         32.78324        54.35463         0.13449
C         31.46778        55.02970        -0.26830
C         32.79515        57.23503        -0.11807
C         31.53523        56.53918        -0.14243
C         32.79919        58.66443        -0.04196
C         31.56643        59.37979         0.01726
C         32.81574        61.49436         0.02490
C         31.56608        60.80445         0.07939
C         35.27104        48.54367        -0.21562
C         35.18045        49.99030        -0.03880
C         34.00778        50.77358        -0.40391
C         35.25669        52.93751        -0.19861
C         33.99464        52.18773        -0.28192
C         35.27935        54.31488        -0.20092
C         33.99570        55.06405        -0.49105
C         35.25788        57.22260        -0.06307
C         34.03346        56.53828        -0.16366
C         35.27364        58.65956        -0.02596
C         34.03208        59.37645        -0.06386
C         35.28882        61.59099        -0.24734
C         34.01120        60.80948        -0.06403
C         37.76919        44.28990        -0.24872
C         37.73043        45.71915        -0.26886
C         36.52977        46.42920        -0.24825
C         37.73905        48.58422        -0.00254
C         36.47957        47.85911        -0.14245
C         37.75917        49.99055         0.05092
C         36.49545        50.75223         0.12511
C         37.76384        52.90449         0.09057
C         36.54096        52.17406        -0.39135
C         37.73742        54.33505         0.13739
C         36.51777        55.05407        -0.07614
C         37.74381        57.16938         0.12896
C         36.51715        56.47756        -0.00813
C         37.77261        58.65289         0.43309
C         36.49978        59.37890         0.06031
C         37.74977        61.49181         0.14003
C         36.54415        60.78948         0.00403
C         40.17794        40.01399         0.00857
C         40.17929        41.40233        -0.20329
C         38.99350        42.16618        -0.17208
C         40.23836        44.32039        -0.68938
C         38.96597        43.57065        -0.32439
C         40.20429        45.76022        -0.24405
C         38.99169        46.44507        -0.19170
C         40.19685        48.57830         0.10565
C         38.97074        47.86954        -0.01932
C         40.19824        50.00322         0.20526
C         38.97632        50.71694         0.12386
C         40.19131        52.84661         0.45377
C         38.96858        52.16928         0.23161
C         40.15148        54.30837         0.82766
C         38.94495        55.05697         0.32850
C         40.28208        57.16620        -0.00794
C         38.96082        56.45640         0.24130
C         40.28671        58.65587         0.23884
C         39.00756        59.35953        -0.14772
C         40.19841        61.50571         0.39705
C         39.00830        60.83334         0.18628
C         42.69874        35.73035         0.38740
C         42.67338        37.11275         0.15058
C         41.42538        37.84508         0.13980
C         42.64344        39.96166        -0.19516
C         41.37129        39.22332         0.00303
C         42.61173        41.39173         0.27710
C         41.49557        42.10699        -0.51423
C         42.63139        44.26495         0.07748
C         41.48838        43.59443        -0.24817
C         42.65549        45.72042         0.11570
C         41.43417        46.44431        -0.00659
C         42.65575        48.55075         0.38314
C         41.42924        47.85995         0.15437
C         42.65052        49.98866         0.50799
C         41.43752        50.70072         0.39444
C         42.64996        52.84284         0.61052
C         41.41810        52.13609         0.50105
C         42.62556        54.27809         0.64863
C         41.45672        55.02497         0.62350
C         42.65369        57.18357         0.73775
C         41.48638        56.46341         0.55696
C         42.71124        58.63958         0.70211
C         41.44024        59.34548         0.49826
C         42.62787        61.49879         0.78011
C         41.45765        60.81534         0.55105
C         45.17031        32.95224         0.83641
C         43.95812        33.61997         0.73229
C         45.15985        35.71792         0.30361
C         43.92285        35.02096         0.47422
C         45.14221        37.10801         0.02472
C         43.92588        37.78347        -0.05677
C         45.19554        39.98671        -0.04154
C         43.93897        39.24040        -0.27403
C         45.14508        41.41940         0.12471
C         43.93027        42.10035         0.20671
C         45.15749        44.28362         0.33418
C         43.87042        43.54961         0.59402
C         45.14518        45.68490         0.32163
C         43.87031        46.41673         0.31767
C         45.13758        48.49401         0.89337
C         43.85822        47.82170         0.45805
C         45.13094        50.00249         0.72520
C         43.89389        50.69733         0.64778
C         45.14377        52.80121         0.54224
C         43.89334        52.12335         0.63522
C         45.11622        54.25934         0.30074
C         43.90734        54.97972         0.76612
C         45.14637        57.23412         0.58849
C         43.91922        56.46022         0.94449
C         45.21723        58.63846         1.13559
C         43.88534        59.33355         0.90580
C         45.16626        61.49631         0.70279
C         43.90619        60.81638         1.18348
C         46.38827        33.63750         0.70585
C         47.63459        35.75256         0.38993
C         46.41024        35.02021         0.44070
C         47.67333        37.12852         0.13280
C         46.42290        37.82258        -0.36012
C         47.63413        40.00988         0.09278
C         46.40439        39.30231        -0.02991
C         47.62680        41.43626         0.16336
C         46.39557        42.13935         0.19734
C         47.62261        44.28448         0.21262
C         46.38658        43.57199         0.25842
C         47.60660        45.70705         0.22169
C         46.37527        46.38586         0.24955
C         47.63889        48.52360         0.50912
C         46.32317        47.88690         0.11140
C         47.63965        49.99148         0.76939
C         46.34344        50.70689         0.65607
C         47.62047        52.83717         0.03003
C         46.35698        52.11275         0.48380
C         47.63344        54.29354         0.53436
C         46.37508        55.01208         0.09962
C         47.67194        57.19377         0.20749
C         46.37468        56.50789         0.17160
C         47.60972        58.69022        -0.00869
C         46.38886        59.38491         0.53923
C         47.61341        61.49955         0.18694
C         46.36441        60.80442         0.47921
C         48.86178        37.86699         0.22558
C         50.09083        40.01148         0.17168
C         48.88480        39.29198         0.13745
C         50.11667        41.43395         0.14493
C         48.86817        42.15836         0.16262
C         50.11233        44.28991         0.07996
C         48.86962        43.57088         0.15332
C         50.12530        45.70212         0.01741
C         48.87171        46.43828         0.10940
C         50.09635        48.59541        -0.27692
C         48.88286        47.81209         0.14226
C         50.20391        49.99154         0.30589
C         48.93681        50.74982         0.68511
C         50.10650        52.86792         0.11426
C         48.93307        52.17804         0.39206
C         50.04175        54.31985        -0.08924
C         48.89062        55.03300         0.14321
C         50.10915        57.22632        -0.04466
C         48.84838        56.49093         0.10741
C         50.10137        58.64537         0.02311
C         48.88496        59.37411         0.52008
C         50.07450        61.54175        -0.02609
C         48.84748        60.85588         0.17684
C         51.32967        42.14799         0.11571
C         52.57837        44.28215         0.01865
C         51.35940        43.56705         0.07090
C         52.60773        45.69531        -0.03908
C         51.35989        46.40958        -0.03974
C         52.57905        48.53674        -0.25483
C         51.38936        47.83586        -0.14103
C         52.57822        50.01199        -0.62088
C         51.35965        50.76958        -0.13069
C         52.60781        52.85478        -0.43009
C         51.36323        52.14790        -0.07367
C         52.54311        54.31048        -0.70891
C         51.25283        55.05565        -0.51291
C         52.60134        57.20681        -0.12446
C         51.28366        56.51101        -0.28303
C         52.57427        58.64616        -0.60864
C         51.26092        59.39856        -0.43792
C         52.54738        61.50663        -0.17916
C         51.30460        60.86465        -0.21550
C         53.82326        46.43219        -0.11974
C         55.06019        48.57817        -0.32831
C         53.83787        47.83565        -0.22889
C         55.09827        49.98421        -0.34274
C         53.81308        50.73158        -0.08237
C         55.07014        52.85773        -1.00081
C         53.79375        52.18765        -0.52221
C         55.07880        54.34287        -0.67197
C         53.81170        55.07695        -0.63409
C         55.10277        57.19793        -0.76361
C         53.79893        56.43912        -0.59722
C         55.04263        58.66933        -0.38629
C         53.83487        59.38243        -0.43306
C         55.01545        61.46154         0.02887
C         53.80140        60.80390        -0.21702
C         56.28968        50.71827        -0.35204
C         57.48270        52.85652        -0.32286
C         56.31871        52.14895        -0.47738
C         57.55468        54.31819        -0.67623
C         56.23731        55.00557        -0.41859
C         57.49881        57.18631        -0.03674
C         56.18053        56.46044         0.02263
C         57.49769        58.57328        -0.08952
C         56.26918        59.33546        -0.16906
C         57.44321        61.44541         0.38886
C         56.26081        60.76507         0.06042
C         58.72904        55.04602        -0.08486
C         59.94212        57.13801         0.37415
C         58.73134        56.42757         0.08099
C         59.99311        58.53745         0.36433
C         58.78666        59.28336        -0.04388
C         59.94481        61.38475         0.87950
C         58.75396        60.82669         0.25091
C         61.15351        59.26068         0.71987
C         61.10516        60.64442         0.98948
O         45.47188        57.14876        -0.82987
O         51.77576        58.94717        -1.76928
O         49.87433        50.25568         1.69502
O         47.66509        49.03384         1.89430
O         44.06491        55.59728         2.11123
O         51.72889        54.67180        -1.87622
O         45.62786        54.55162        -1.06755
O         35.72256        50.49883         1.29840
O         58.99214        60.24978        -1.09019
O         43.24211        39.72413        -1.51892
O         57.72695        54.37447        -2.15062
H         57.58554        55.30852        -2.42153
O         40.28394        44.35686        -2.15453
H         40.67642        43.50042        -2.45088
O         32.88123        54.46359         1.57826
H         33.67066        53.95923         1.86887
O         53.66426        50.73178         1.36960
H         54.49082        51.08510         1.75944
O         46.49341        37.74719        -1.82401
H         45.69054        38.18560        -2.17964
O         52.59222        50.06616        -2.06602
H         51.69934        49.78653        -2.37351
O         43.96651        60.92014         2.67943
H         43.09249        60.62830         3.01963
O         42.20034        41.34653         1.67095
H         42.50636        42.18787         2.09683
O         49.92225        48.85290        -1.72690
H         49.95112        47.98592        -2.18599
O         55.12611        52.73890        -2.44699
H         55.96549        53.17008        -2.72942
O         55.48175        57.12977        -2.16252
H         54.76151        57.52843        -2.69509
O         39.96723        54.30462         2.30524
H         40.75872        53.87444         2.69546
O         36.69430        52.01483        -1.85043
H         36.77916        52.91088        -2.23966
O         33.81962        54.98760        -1.94772
H         34.52816        55.52456        -2.36144
O         52.82659        57.31696         1.34047
H         53.76204        57.05672         1.52791
O         43.69561        43.57719         2.07866
H         44.56096        43.34391         2.47908
O         41.73894        41.99050        -1.94394
H         42.18964        41.13237        -2.12825
O         47.59915        52.81905        -1.41822
H         46.80002        53.32557        -1.70910
O         35.27881        62.78515         0.54605
H         35.24812        62.52390         1.48903
O         46.07948        48.19753        -1.28599
H         46.74322        47.72629        -1.83105
O         47.55812        54.27915         1.98351
H         48.38429        53.88238         2.33190
O         55.72951        56.47676         1.41828
H         56.42807        56.06287         1.96802
O         37.91004        58.75901         1.88353
H         37.17296        58.26019         2.29420
O         48.82973        59.24270         1.96612
H         49.65632        59.61052         2.34211
O         38.88486        59.26309        -1.60751
H         39.51605        59.90316        -2.00015
O         40.44875        57.02660        -1.46894
H         39.79364        57.64604        -1.87846
O         31.12155        54.67064        -1.61219
H         31.92059        54.82332        -2.16839
O         45.43934        58.56165         2.56926
H         45.20512        59.44854         2.93952
O         47.59229        58.90329        -1.44642
H         46.81030        58.41216        -1.79168
O         45.24429        48.17617         2.29920
H         46.10910        48.53845         2.61637
H         29.39688        56.69842        -0.07811
H         28.16416        58.84991         0.09902
H         30.33249        62.59162         0.20643
H         28.18092        61.33740         0.23318
H         31.84140        52.33504        -0.19407
H         30.64962        54.64588         0.39374
H         32.82594        62.59430         0.03833
H         34.35389        47.99334        -0.47507
H         33.06952        50.24965        -0.64138
H         35.32138        61.93548        -1.32124
H         36.82251        43.74220        -0.11457
H         35.57881        45.87706        -0.29957
H         37.71338        62.58983         0.20613
H         39.21522        39.50776         0.18460
H         38.04084        41.64565         0.02229
H         40.18213        62.59633         0.54860
H         41.75304        35.18625         0.52991
H         40.49434        37.27478         0.28031
H         42.60602        62.59935         0.81810
H         45.18017        31.87155         1.03722
H         43.01224        33.07222         0.85127
H         45.16488        62.59609         0.65658
H         47.33692        33.09234         0.81435
H         48.57148        35.22693         0.63286
H         47.57230        62.58646         0.01471
H         49.80453        37.33889         0.43848
H         51.04435        39.46300         0.19931
H         50.07105        62.64315        -0.04084
H         52.27990        41.59329         0.11251
H         53.52623        43.72336         0.01177
H         52.57427        62.59339        -0.00573
H         54.77703        45.88307        -0.11202
H         56.00722        48.01925        -0.39102
H         55.01573        62.54830         0.20111
H         57.25210        50.18252        -0.31096
H         58.40525        52.34087        -0.01270
H         57.38470        62.47880         0.76296
H         59.68352        54.50258        -0.00564
H         60.86009        56.56391         0.56970
H         59.89351        62.40036         1.29786
H         62.07922        58.70673         0.93128
H         62.00459        61.12474         1.40163
