         621
 CSIRO Nanostructure Databank - Neutral Graphene Oxide Data Set
C          6.86716        32.06309         2.85766
C          6.75668        33.40511         2.65415
C          9.00435        27.66433         1.76413
C          9.10420        29.11495         1.95037
C          7.94070        29.89194         2.39097
C          8.83710        31.92770         1.33343
C          7.89981        31.25838         2.22784
C          8.52086        33.27025         0.95078
C          7.57009        34.07375         1.66048
C          8.22767        36.05475         0.33220
C          7.47624        35.44480         1.38643
C          8.36178        37.48451         0.20474
C         11.00210        23.21598         0.53650
C         10.84008        24.66054         0.30020
C          9.92344        25.48461         1.08773
C         11.02717        27.57962         0.34121
C          9.94201        26.89227         1.04636
C         11.17454        28.98354         0.47850
C         10.24170        29.87111         1.23660
C         10.73717        31.97303        -0.23146
C          9.98224        31.28247         0.80818
C         10.12946        33.06082        -0.86481
C          9.11688        33.81701        -0.21696
C         10.59715        36.27602        -1.50362
C          8.88168        35.17257        -0.55109
C         10.61674        37.55563        -0.96920
C          9.44424        38.19663        -0.34956
C         10.61662        40.41332        -0.35035
C          9.49067        39.60799        -0.10486
C         10.66233        41.80508        -0.10232
C         13.33481        18.91367         0.15121
C         13.30164        20.32011        -0.02936
C         12.15042        21.06540         0.25528
C         13.28270        23.14568        -0.46102
C         12.11045        22.48773         0.11499
C         13.18061        24.57070        -0.85003
C         11.95971        25.37252        -0.44879
C         13.21145        27.50095        -0.79942
C         12.06778        26.84758        -0.29135
C         13.33416        28.90636        -0.73333
C         12.36150        29.55333         0.03287
C         13.03999        31.98460        -1.51485
C         12.13910        31.66783        -0.52497
C         13.01217        33.28891        -2.34698
C         11.82094        34.17020        -2.02973
C         13.06696        36.29488        -1.87060
C         11.79947        35.52897        -1.83628
C         13.07788        37.67800        -1.33089
C         11.87452        38.28939        -1.01245
C         13.14568        40.53005        -0.84884
C         11.81895        39.75783        -0.89804
C         13.12267        41.89367        -0.31237
C         11.86862        42.56329        -0.11718
C         13.09598        44.69827         0.21165
C         11.89411        43.96652         0.13871
C         13.12271        46.10494         0.41247
C         15.79819        14.69752         0.72526
C         15.80206        16.03764         0.32991
C         14.58136        16.79986         0.34415
C         15.76360        18.87073        -0.35462
C         14.51834        18.15351         0.00668
C         15.72604        20.34364        -0.38838
C         14.53274        21.03111        -0.37497
C         15.69818        23.14605        -1.14206
C         14.47019        22.46152        -0.64411
C         15.76651        24.60030        -1.16406
C         14.46553        25.29683        -1.16624
C         15.72619        27.52530        -1.23564
C         14.47419        26.76263        -0.95330
C         15.60738        28.95870        -1.61735
C         14.44886        29.65777        -1.31193
C         15.56525        31.85678        -2.06941
C         14.27467        31.11136        -1.72023
C         15.50760        33.34821        -2.04698
C         14.32664        34.02704        -2.09928
C         15.52976        36.15656        -1.37203
C         14.34226        35.51939        -2.02570
C         15.54208        37.60514        -1.11758
C         14.35455        38.35154        -1.13572
C         15.58623        40.42929        -0.51295
C         14.39271        39.75330        -0.82200
C         15.56037        41.81046        -0.19776
C         14.34719        42.53797        -0.04651
C         15.55549        44.66155         0.31969
C         14.36400        43.97320         0.19135
C         15.59546        46.13687        -0.00582
C         14.32398        46.85703         0.42562
C         15.53902        49.01725         0.80601
C         14.33654        48.23938         0.63362
C         15.54999        50.38268         0.94093
C         18.30880        10.75303         2.38558
C         18.27697        11.94735         1.45222
C         17.09906        12.58231         1.23951
C         18.24847        14.52116        -0.01001
C         16.96347        13.84837         0.49008
C         18.27700        15.99953        -0.05765
C         17.05352        16.68437         0.03153
C         18.34242        18.83564         0.21776
C         17.07074        18.13917        -0.24265
C         18.28158        20.35084        -0.00598
C         17.01662        21.06756        -0.35156
C         18.28187        23.22415        -0.85593
C         17.07886        22.42007        -0.98498
C         18.26781        24.60648        -1.11520
C         16.98237        25.30519        -1.26684
C         18.16653        27.45741        -1.49689
C         16.96932        26.73614        -1.45083
C         18.16028        28.88377        -1.74807
C         16.87374        29.61073        -2.01652
C         18.15464        31.59425        -1.22841
C         16.89133        31.13010        -1.99205
C         18.29336        33.03888        -0.74877
C         16.76038        34.15074        -2.19232
C         18.11052        36.11532        -1.13762
C         16.82727        35.39166        -1.35095
C         18.08824        37.45059        -0.85906
C         16.80508        38.17251        -0.63544
C         18.15203        40.38840        -0.35870
C         16.85954        39.67816        -0.34996
C         18.07957        41.89268        -0.47896
C         16.83103        42.45593         0.16558
C         18.10109        44.65854         0.53844
C         16.81375        43.93160         0.46559
C         18.08932        46.03587         0.79127
C         16.88365        46.84043         0.44325
C         17.99866        48.89147         1.55944
C         16.83633        48.28261         0.82400
C         18.04980        50.40357         1.52987
C         16.73220        51.18531         1.44975
C         18.12813        53.16982         0.56726
C         16.91508        52.55989         0.83115
C         18.22710        54.56375         0.29932
C         20.91968         6.66869         3.42469
C         20.89946         8.00647         3.03290
C         19.66472         8.72886         2.89566
C         20.84803        10.67685         2.02275
C         19.62430        10.00896         2.39982
C         20.84019        11.91496         1.34028
C         19.54386        12.42641         0.84781
C         20.80595        14.50807         0.02473
C         19.53607        13.76850         0.13909
C         20.73536        15.86393        -0.54505
C         19.50647        16.67412        -0.32576
C         20.75477        18.80135        -0.58369
C         19.57834        18.11030        -0.32338
C         20.82047        20.27868        -0.40592
C         19.58586        21.07736        -0.15175
C         20.69773        23.10143        -1.30072
C         19.57385        22.61090        -0.32606
C         20.81026        24.61140        -0.99379
C         19.49538        25.37508        -1.03599
C         20.51576        27.66832        -1.03941
C         19.40567        26.77899        -1.17777
C         20.58765        28.91264        -1.62320
C         19.35832        29.57653        -1.90798
C         20.65874        31.71058        -1.41564
C         19.39420        31.09281        -2.01165
C         20.65578        33.19824        -1.33005
C         19.46871        33.86300        -1.16286
C         20.67539        36.11558        -0.99926
C         19.38806        35.34383        -0.97585
C         20.64791        37.61152        -1.15173
C         19.29908        38.33030        -1.11502
C         20.62123        40.35066        -0.21819
C         19.36961        39.70242        -0.44865
C         20.63211        41.80824         0.06554
C         19.36707        42.59335        -0.05643
C         20.50507        44.54208         1.02513
C         19.31136        43.93458         0.56905
C         20.46633        45.91975         1.36673
C         19.28581        46.66471         1.19364
C         20.57447        48.80106         1.50532
C         19.26953        48.10052         1.58473
C         20.59188        50.21399         1.05654
C         19.34790        51.04254         1.15585
C         20.68455        53.10659         0.59991
C         19.38598        52.34656         0.38010
C         20.70865        54.48757         0.31760
C         19.47177        55.22198         0.12639
C         20.78033        57.27181        -0.32033
C         19.54060        56.60463        -0.14276
C         20.84322        58.69576        -0.45900
C         23.36318         3.85071         3.85312
C         22.16171         4.56627         3.84241
C         23.37022         6.59027         3.16890
C         22.14118         5.93631         3.49367
C         23.38312         7.98176         2.84971
C         22.13330         8.70384         2.76807
C         23.32061        10.80483         2.13318
C         22.08738        10.03235         2.31645
C         23.29655        12.03514         1.33807
C         22.05189        12.57773         0.95051
C         23.27831        14.58394         0.07826
C         22.01724        13.87686         0.28453
C         23.29756        15.92887        -0.31161
C         22.06976        16.59112        -0.76064
C         23.31884        18.82757        -0.86271
C         22.01857        18.08650        -0.90577
C         23.32849        20.30468        -0.65015
C         22.03949        21.02380        -0.82589
C         23.28090        22.97436        -1.63556
C         22.02327        22.34644        -1.12858
C         23.29721        24.45115        -1.86125
C         22.19122        25.20820        -1.20623
C         23.32431        27.32292        -1.94903
C         22.44584        26.64579        -1.17533
C         23.20613        28.79921        -2.12019
C         21.90861        29.54807        -1.93655
C         23.23160        31.75066        -1.68769
C         21.96981        30.99541        -1.55928
C         23.23938        33.12098        -1.47271
C         21.97637        33.86081        -1.18811
C         23.28525        36.11345        -1.28427
C         21.99276        35.36405        -1.10596
C         23.23458        37.52816        -0.77636
C         21.92285        38.30151        -0.76742
C         23.03531        40.23294         0.36838
C         21.88346        39.66390        -0.17604
C         23.10459        41.72642         0.56040
C         21.77924        42.43505         0.76098
C         22.96046        44.42285         1.69277
C         21.73378        43.75411         1.14808
C         23.00471        45.91467         1.84422
C         21.69745        46.63932         1.79271
C         23.05119        48.77202         1.76002
C         21.73638        48.09745         1.57796
C         23.08154        50.26030         1.63543
C         21.88502        50.95702         1.06141
C         23.13360        53.11130         0.83959
C         21.88923        52.43522         0.89459
C         23.18873        54.44949         0.41013
C         21.96214        55.15852         0.18644
C         23.26986        57.12737        -0.55628
C         21.98493        56.51552        -0.21955
C         23.31124        58.65457        -0.73209
C         22.05381        59.39325        -0.51335
C         23.39083        61.43856        -0.31684
C         22.14788        60.80068        -0.35895
C         24.56163         4.46553         3.50544
C         25.79370         6.47685         2.75699
C         24.59107         5.84189         3.15126
C         25.81434         7.84067         2.40861
C         24.60240         8.60161         2.50427
C         25.84162        10.61931         1.60664
C         24.65714        10.04005         2.25707
C         25.80185        11.90596         1.07912
C         24.53994        12.63766         0.93835
C         25.76459        14.46322        -0.29677
C         24.51680        13.89172         0.32764
C         25.82142        15.96615        -0.23481
C         24.54411        16.73746         0.00805
C         25.78606        18.80051        -0.70149
C         24.59585        18.12397        -0.59989
C         25.86608        20.21108        -1.04865
C         24.62809        20.99870        -0.90964
C         25.78535        23.03696        -1.70787
C         24.60358        22.36059        -1.45651
C         25.77012        24.45739        -2.05178
C         24.58573        25.14956        -2.06578
C         25.77007        27.32799        -1.82674
C         24.57109        26.62323        -2.45436
C         25.74316        28.82537        -1.67965
C         24.51311        29.55904        -2.12272
C         25.76449        31.70660        -1.54138
C         24.50623        31.04709        -1.92224
C         25.69606        33.08028        -1.26731
C         24.47846        33.79932        -1.30034
C         25.55533        35.75083        -0.18074
C         24.59464        35.30707        -1.27192
C         25.51539        37.13914         0.38652
C         24.26804        37.97383         0.20567
C         25.49481        39.90583         1.42311
C         24.19502        39.36987         0.76149
C         25.49083        41.43579         1.54735
C         24.22359        42.21245         1.45185
C         25.54920        44.43398         1.55519
C         24.26506        43.70096         1.67847
C         25.53300        45.86089         1.53748
C         24.30758        46.61994         1.65631
C         25.57386        48.73158         1.48952
C         24.32767        48.01115         1.63727
C         25.62386        50.16024         1.42658
C         24.39886        50.96403         1.57209
C         25.68476        53.01728         0.78513
C         24.40134        52.42674         1.20933
C         25.69763        54.37371         0.37421
C         24.47239        55.10229         0.21135
C         25.76879        57.13178        -0.35414
C         24.51901        56.43521        -0.22094
C         25.78009        58.55774        -0.49823
C         24.61052        59.32350        -0.52964
C         24.59736        60.73241        -0.37563
C         27.02330         8.48944         2.01759
C         28.26869        10.45951         1.22106
C         27.05823         9.83620         1.60814
C         28.29158        11.80477         0.80713
C         27.04090        12.52395         0.65827
C         28.28513        14.51547        -0.05330
C         27.05157        13.82697         0.16349
C         28.28860        15.89227        -0.36003
C         27.02318        16.60869        -0.36591
C         28.34393        18.76089        -0.79424
C         27.05588        18.08899        -0.42202
C         28.32120        20.16779        -1.27257
C         27.05100        20.87984        -1.30671
C         28.25776        22.99367        -1.70274
C         27.06416        22.32442        -1.57622
C         28.35189        24.45925        -1.92615
C         27.05608        25.21356        -2.18807
C         28.24656        27.35217        -1.62264
C         27.07234        26.65528        -1.89400
C         28.23463        28.81107        -1.48333
C         27.02942        29.54908        -1.60423
C         28.25495        31.66133        -1.38858
C         27.01400        30.97585        -1.54025
C         28.26446        33.14553        -1.32492
C         26.95782        33.84862        -1.13611
C         28.10792        35.80853         0.09350
C         26.88213        35.07162        -0.26610
C         28.09569        37.12364         0.50266
C         26.81387        37.82223         0.75674
C         27.99753        39.96835         0.97440
C         26.80220        39.29683         0.90229
C         28.00494        41.45456         0.97571
C         26.72857        42.22484         1.22202
C         27.96798        44.40651         1.13244
C         26.74668        43.71536         1.38665
C         27.97749        45.81338         1.19298
C         26.77153        46.55494         1.39945
C         28.04232        48.70284         1.40441
C         26.78709        47.99226         1.40438
C         28.06685        50.13119         1.29326
C         26.85147        50.85385         1.23422
C         28.13023        52.90480         0.60821
C         26.86878        52.26839         0.90814
C         28.14557        54.27008         0.23921
C         26.95421        55.02233         0.11617
C         26.96572        56.40415        -0.20721
C         29.50875        12.45602         0.49678
C         30.75770        14.49476        -0.11714
C         29.53900        13.80977         0.11076
C         30.79144        15.85733        -0.47365
C         29.53095        16.58247        -0.59256
C         30.80992        18.56051        -1.34303
C         29.54479        17.92417        -0.97924
C         30.79928        20.10596        -1.50511
C         29.50112        20.81653        -1.48296
C         30.58398        22.94158        -0.80683
C         29.58452        22.28965        -1.75937
C         30.58909        24.44426        -0.72740
C         29.49791        25.21484        -1.38832
C         30.63450        27.34859        -0.89335
C         29.47807        26.61320        -1.35620
C         30.66399        28.75473        -0.94189
C         29.45907        29.51033        -1.25095
C         30.68627        31.67348        -0.91435
C         29.45790        30.94236        -1.21408
C         30.70191        33.01432        -0.62199
C         29.53933        33.90627        -0.96038
C         30.62053        35.73709         0.45795
C         29.36254        35.03143         0.05981
C         30.57283        37.19672         0.69692
C         29.32353        37.87202         0.71446
C         30.50017        40.01274         1.00326
C         29.28389        39.28091         0.89405
C         30.49016        41.46539         1.13189
C         29.27627        42.16881         1.11112
C         30.54367        44.35795         0.89330
C         29.22516        43.63559         0.89899
C         30.55446        45.85741         0.94285
C         29.23774        46.57695         1.05888
C         30.52988        48.69733         1.80170
C         29.25118        47.99184         1.43435
C         30.53857        50.07502         1.20464
C         29.34556        50.79019         1.06975
C         29.33050        52.16051         0.69386
C         32.02145        16.55335        -0.59545
C         33.25257        18.69354        -0.94698
C         32.07706        17.91982        -0.94680
C         33.22420        20.12290        -0.94497
C         31.98826        20.80723        -1.07096
C         33.12209        22.96238        -0.27452
C         31.85181        22.17572        -0.54836
C         33.05059        24.45088        -0.25389
C         31.87143        25.13409        -0.42224
C         33.07932        27.39642        -0.07258
C         31.78567        26.61736        -0.31837
C         33.09827        28.80838        -0.47770
C         31.90620        29.46161        -0.74608
C         33.11631        31.57187        -0.26117
C         31.99397        30.93667        -1.07817
C         33.15750        33.07171        -0.35107
C         31.92504        33.74275        -0.30218
C         33.10002        35.80266         0.31642
C         31.90893        35.11138         0.07540
C         33.05079        37.13061         1.04178
C         31.77070        37.90823         0.83226
C         32.99650        40.04604         1.06778
C         31.74961        39.32195         0.97361
C         32.96596        41.47417         1.18593
C         31.74455        42.16012         1.22911
C         33.02408        44.37620         1.30387
C         31.71914        43.64116         1.53530
C         33.02158        45.76954         1.32695
C         31.81078        46.55272         1.33850
C         31.79121        47.89916         1.58372
C         34.41929        20.89686        -0.76229
C         35.60113        23.04869        -0.58158
C         34.41099        22.28434        -0.56305
C         35.61924        24.43992        -0.32896
C         34.35010        25.13061         0.00924
C         35.62680        27.31346        -0.34142
C         34.37812        26.65548         0.05328
C         35.60613        28.71769        -0.72232
C         34.37273        29.49813        -0.57160
C         35.66383        31.60456        -0.49562
C         34.42848        30.88070        -0.53634
C         35.63071        33.07941        -0.47398
C         34.35746        33.78494        -0.23301
C         35.58396        35.87395         0.38670
C         34.34610        35.16434         0.09886
C         35.52925        37.27725         0.72470
C         34.30180        37.94574         0.86258
C         35.48622        40.09663         1.07710
C         34.24351        39.35644         1.00968
C         35.44339        41.50431         1.17763
C         34.22549        42.21334         1.22203
C         34.21891        43.62548         1.24375
C         36.81566        25.17463        -0.31929
C         38.08870        27.33580        -0.24570
C         36.84786        26.60624        -0.31458
C         38.14425        28.72863        -0.23419
C         36.95980        29.49660        -0.64886
C         38.09842        31.63961        -0.01934
C         36.89781        30.94672        -0.42213
C         38.10175        33.02711         0.18313
C         36.91410        33.82725        -0.14217
C         38.02725        35.88245         0.74324
C         36.81154        35.21371         0.35249
C         37.99102        37.26637         0.96384
C         36.76839        37.99829         0.90336
C         36.71670        39.39400         1.07458
C         39.29934        29.47467         0.16097
C         40.46241        31.58569         0.70663
C         39.29380        30.86627         0.26138
C         40.45049        32.93783         0.90634
C         39.26066        33.72147         0.67555
C         39.22755        35.10523         0.87780
O         17.51397        21.04298         1.04113
O         17.25985        47.89272        -0.53805
O         27.61974        33.87386        -2.44292
O         22.28779        46.27653         3.08187
O         17.05167        30.40090        -3.24956
O         36.38538        29.05062        -1.91144
O         32.36713        22.33196         0.80959
O         21.74600        24.73787         0.11663
O         29.95093        46.42427        -0.25566
O         36.44489        33.68226        -1.53162
O         25.97844        37.13120         1.75807
O         22.37463        29.19801        -3.27400
O         10.33070        29.60521         2.66052
O         10.59560        33.48814        -2.11236
O         16.73799        38.69725         0.74311
O         17.58587        33.39982         0.18466
O          9.36483        35.65844        -1.77477
O         23.64473        38.21076         1.50383
O         12.68271        30.83361         0.46556
O         18.90007        51.04090         2.54527
O         22.92341        49.65211         2.95023
O         17.60901        33.87261        -3.03476
O         22.68284        18.52300        -2.15851
O         24.14200        10.87763         3.34736
O         21.62725        27.31504        -0.28027
O         34.44941        25.85682         1.27398
O         27.86600        18.70820         0.62691
O         30.89813        19.20597        -2.65618
O         29.90255        34.85139         1.40764
O         21.43746        38.25319        -2.17518
O         19.53230        12.51655        -0.61894
O         24.46684        51.99920         2.62012
O         27.15842        41.93489        -0.15600
O         16.84761        42.89340         1.54621
O         24.66268        41.67423         2.72430
O         30.02916        23.58032         0.35714
O         32.15313        27.12384         1.01167
O         23.51608        43.89226         2.93911
O         22.96911        23.55715        -2.98063
O         20.03312        35.78803         0.27225
O         14.72884        31.27339        -3.10083
O         30.00893        43.88970        -0.35589
O         15.93059        35.36046        -0.19886
O         21.27918        31.12617        -0.24237
O         13.78805        36.21703        -3.17119
O         25.47991        27.94668        -0.53034
O         27.93165        24.82558        -3.29303
O         16.38173        22.48339        -2.25324
O         18.43724        48.30069         2.80681
O         20.32376        42.59746        -1.18898
O         24.08327        20.82487         0.47893
O         20.44039        20.68697         0.99029
O         17.34726        13.86717        -0.93768
O         15.32717        27.19907         0.16968
O         25.91869        34.77155         0.81672
O         10.77208        24.97405        -1.17263
O         23.52954        37.23391        -2.17612
O         24.67525        30.39327        -3.28753
O         12.36139        40.40459        -2.08965
O         13.57042        24.85415        -2.24045
O         22.13910        34.55202         0.10297
O         16.53218        18.42423        -1.56523
O         23.28543        57.76350        -1.88358
O         21.37101        50.33198        -0.19556
O         21.36587        15.94346        -1.86733
O         25.65046        14.12208        -1.73112
H         26.47064        14.42895        -2.17314
O         24.46550        16.96877         1.46101
H         25.25737        17.48429         1.72907
O         19.01161        38.69137        -2.51216
H         19.87556        38.94162        -2.92063
O         17.21641         9.87294         2.10773
H         17.28324         9.58808         1.17327
O         16.35448        51.49155         2.83062
H         17.19361        51.63839         3.32605
O         33.04071        36.77438         2.47490
H         32.22137        36.26050         2.64520
O         19.39962        31.57109        -3.35883
H         18.60445        31.21247        -3.82111
O         12.93097        33.02803        -3.76169
H         12.03449        32.68266        -3.95478
O         30.15670        22.49308        -3.08185
H         29.52948        22.14613        -3.75062
O         24.72786        26.72496        -3.87901
H         23.94941        26.32456        -4.31773
O         25.31531        35.65355        -2.49014
H         24.71363        35.56073        -3.25824
O         25.50195        39.46106         2.79567
H         25.20879        38.51674         2.80593
O         32.78303        31.29552         1.13291
H         33.43400        31.74855         1.70780
O         15.58252        46.17701        -1.46325
H         16.01413        47.02537        -1.72223
O         20.25112        22.87207        -2.64477
H         21.01619        23.03299        -3.24550
O         29.99993        34.59880        -2.16099
H         29.23352        34.64178        -2.78289
O         32.35151        31.05653        -2.48011
H         31.58535        30.77439        -3.02160
O         17.87487        42.17189        -1.89400
H         18.76660        42.14867        -2.31414
O         23.54703        42.24804        -0.75471
H         22.81142        42.11602        -1.39326
O         18.11847        30.86180         0.02500
H         17.82157        31.48147         0.73113
O         19.37348        51.97380        -1.02860
H         20.17904        51.42445        -1.19089
O         19.79385        23.18463         0.96568
H         20.35459        22.56219         1.48272
O         18.39062        18.63136         1.65279
H         19.02409        19.29087         2.01589
O         31.44386        43.75471         2.97307
H         32.20595        43.37233         3.45766
O         30.46610        48.86736         3.28485
H         29.77804        49.54232         3.47099
H          6.19445        31.55987         3.56772
H          5.99898        33.98900         3.19650
H          8.12399        27.15921         2.19073
H          7.13018        29.37487         2.92666
H          6.83217        36.07698         2.01583
H          7.64360        38.08459         0.78790
H         10.18515        22.68532         1.04872
H          9.22440        24.98063         1.77163
H          8.60067        40.07787         0.34202
H          9.73215        42.31595         0.18958
H         12.41362        18.40227         0.46929
H         11.24515        20.54512         0.60173
H         10.93739        44.50040         0.24297
H         12.16990        46.63088         0.58203
H         14.88904        14.25325         1.15829
H         13.65563        16.28313         0.63945
H         13.37460        48.76300         0.75187
H         14.59342        50.92659         0.89716
H         18.14008        11.13712         3.43286
H         16.19633        12.19414         1.73764
H         16.01714        53.19949         0.85621
H         17.30511        55.16531         0.27728
H         19.97361         6.15223         3.64492
H         18.72353         8.23268         3.17577
H         18.60747        57.18141        -0.22734
H         19.90415        59.26516        -0.38800
H         23.35710         2.78625         4.12665
H         21.21928         4.06204         4.09980
H         23.42207        62.53008        -0.19079
H         21.22675        61.39031        -0.24765
H         25.49783         3.88926         3.49772
H         26.72675         5.89488         2.72349
H         26.75130        59.07294        -0.44772
H         25.55084        61.27032        -0.27533
H         27.95703         7.90752         2.01360
H         29.20832         9.88949         1.26811
H         29.11090        54.75745         0.03582
H         27.93031        56.91880        -0.32843
H         30.45345        11.90095         0.59591
H         31.70559        13.95033         0.00875
H         31.49753        50.56892         0.99077
H         30.28495        52.66315         0.47574
H         32.95614        16.01953        -0.36682
H         34.21569        18.19421        -0.76271
H         33.98380        46.30360         1.36917
H         32.73772        48.41334         1.81287
H         35.38856        20.38150        -0.83943
H         36.55307        22.53808        -0.79224
H         36.38801        42.06763         1.21105
H         35.17745        44.15972         1.15843
H         37.76665        24.63312        -0.43555
H         39.00698        26.76406        -0.04221
H         38.92257        37.80314         1.19834
H         37.65239        39.95778         1.20679
H         40.21502        28.92438         0.42648
H         41.38052        31.01174         0.90157
H         41.35770        33.45128         1.25709
H         40.14775        35.61810         1.19645
