         232
 CSIRO Nanostructure Databank - Neutral Graphene Oxide Data Set
C        -11.06233         0.60627         0.06374
C         -9.80674         1.35564        -0.06771
C         -8.52327         0.68771         0.09355
C         -7.32832         1.48742         0.45277
C         -6.01387         0.76706         0.63149
C         -4.75449         1.49026         0.24249
C         -3.76424         0.73731        -0.64233
C         -2.43087         1.43864        -0.76420
C         -1.24472         0.75066        -0.79045
C          0.06060         1.51113        -1.11611
C          1.32795         0.74863        -0.72353
C          2.56282         1.46227        -0.31868
C          3.73130         0.78978        -0.10351
C          4.99305         1.52048         0.02602
C          6.23504         0.76717         0.13920
C          7.44066         1.40080         0.29566
C          8.71317         0.63976         0.60285
C          9.99305         1.43349         0.43809
C         11.19494         0.61239         0.51000
C         -9.82779         2.74205        -0.11928
C         -8.62452         3.55791        -0.12093
C         -7.35630         2.91917         0.08074
C         -6.16511         3.65680         0.02746
C         -4.84488         2.96358         0.04277
C         -3.80448         3.67433        -0.79736
C         -2.48400         2.91669        -0.93007
C         -1.18201         3.66220        -0.72862
C          0.03055         2.88938        -0.50199
C          1.25278         3.62896        -0.19024
C          2.55776         2.93219        -0.19083
C          3.81774         3.67053        -0.59306
C          5.00879         2.90037        -0.05747
C          6.20735         3.63658         0.32746
C          7.49355         2.86120         0.49389
C          8.75434         3.59597         0.07457
C         10.00715         2.79683         0.38455
C         -8.65848         4.95060        -0.27978
C         -7.45790         5.74067        -0.32184
C         -6.19430         5.04611        -0.23341
C         -4.96053         5.80174        -0.21927
C         -3.69230         5.09309        -0.25136
C         -2.51089         5.74121        -0.03001
C         -1.22743         5.01944        -0.10791
C          0.05236         5.75059         0.09536
C          1.29479         5.14333        -0.56330
C          2.59176         5.83697        -0.12641
C          3.81544         5.13122        -0.20497
C          5.06239         5.79558        -0.02756
C          6.26177         5.09812         0.15584
C          7.51768         5.78219         0.39188
C          8.70003         5.05520         0.48478
C         -7.46720         7.13668        -0.46080
C         -6.19677         7.90885        -0.72843
C         -4.98157         7.18745        -0.21856
C         -3.79818         7.93370         0.20464
C         -2.48490         7.16153         0.37026
C         -1.23420         7.94288         0.30881
C          0.02868         7.20482         0.44032
C          1.33387         7.95585         0.42462
C          2.56187         7.22683         0.05184
C          3.77537         8.02184        -0.12038
C          5.10461         7.26489        -0.12412
C          6.32433         7.96112         0.32934
C          7.46993         7.22856         0.56181
C         -6.16531         9.37622        -0.36630
C         -5.01275        10.05168        -0.13772
C         -3.71940         9.39485         0.02884
C         -2.50619        10.03994         0.13002
C         -1.23730         9.33418         0.27113
C          0.02956        10.05144         0.27683
C          1.27003         9.43094         0.30208
C          2.54047        10.12416         0.33685
C          3.75025         9.45708         0.24881
C          5.03661        10.08600         0.44251
C          6.22186         9.39550         0.49692
C        -11.27350        -0.73222         0.25600
C        -10.22647        -1.74564         0.12148
C         -8.34419        -0.65410        -0.13965
C         -7.23205        -1.44154         0.30250
C         -5.95271        -0.75519         0.75324
C         -4.78019        -1.44262         0.10758
C         -3.66291        -0.73663        -0.33859
C         -2.47196        -1.44891        -0.59522
C         -1.22652        -0.70924        -0.66631
C         -0.04183        -1.40563        -0.45653
C          1.25442        -0.70702        -0.42579
C          2.39307        -1.37238         0.26969
C          3.69827        -0.64004         0.28366
C          4.97369        -1.42553         0.28578
C          6.19880        -0.70450        -0.24876
C          7.46985        -1.43508         0.14731
C          8.76088        -0.70475        -0.14812
C          9.97548        -1.52855         0.21214
C         11.17927        -0.75546         0.43905
C         -9.95627        -2.85740         0.85262
C         -8.58069        -3.50434         1.04748
C         -7.32563        -2.79728         0.51128
C         -6.02459        -3.50787         0.70928
C         -4.79280        -2.85282         0.16040
C         -3.69248        -3.60000        -0.32264
C         -2.48722        -2.87602        -0.64236
C         -1.20313        -3.52814        -0.75703
C         -0.01220        -2.83723        -0.42532
C          1.16750        -3.59796        -0.18677
C          2.39377        -2.87621         0.26465
C          3.69608        -3.55876         0.10976
C          4.89044        -2.89175         0.08309
C          6.16559        -3.57669        -0.25282
C          7.44513        -2.92468         0.16435
C          8.71524        -3.67835        -0.00027
C          9.93649        -2.90602         0.18489
C         -8.51508        -5.00051         0.81767
C         -7.33827        -5.70567         0.86982
C         -6.02448        -4.99043         0.92686
C         -4.70990        -5.76000         0.71381
C         -3.77035        -5.06782        -0.27884
C         -2.92325        -5.88255        -0.96821
C         -1.06315        -4.88648        -1.10142
C         -0.02585        -5.70669        -0.61467
C          1.12743        -5.00710        -0.16588
C          2.36041        -5.70395         0.38514
C          3.59735        -5.00277        -0.21366
C          4.85254        -5.74353        -0.55329
C          6.17738        -5.03998        -0.55688
C          7.43484        -5.80885        -0.32761
C          8.67290        -5.04083        -0.21151
C         -7.31938        -7.14917         0.87914
C         -6.15748        -7.89018         0.71167
C         -4.91448        -7.22781         0.37940
C         -3.86390        -7.97745        -0.09034
C         -2.76449        -7.36087        -0.89995
C         -1.37249        -7.89783        -0.55541
C         -0.14135        -7.17833        -0.50330
C          1.04910        -7.89321        -0.23094
C          2.35378        -7.26814         0.26489
C          3.49979        -7.87931        -0.58891
C          4.82160        -7.20273        -0.24904
C          6.11740        -7.94164        -0.14791
C          7.39159        -7.17810        -0.25514
C         -6.17019        -9.33846         0.69295
C         -5.06058       -10.07224         0.37975
C         -3.83842        -9.41742        -0.02104
C         -2.61888       -10.04858        -0.22927
C         -1.37554        -9.31303        -0.38097
C         -0.14701       -10.00788        -0.31029
C          1.06878        -9.31318        -0.24883
C          2.34727       -10.02702        -0.20122
C          3.54121        -9.37819        -0.34140
C          4.83162       -10.05064        -0.39413
C          6.02830        -9.40691        -0.35766
O         -3.00763        -7.83299        -2.27210
H         -2.46383        -7.26197        -2.85953
O          1.66996        -0.25506        -1.77151
O          2.53381        -7.82951         1.57709
H          2.43779        -7.10879         2.24088
O         -6.70970         1.31392         1.79365
O         -4.00466        -5.79385         1.98256
H         -4.31374        -5.01238         2.50060
O          4.45342        -0.88043         1.52233
O          6.78670         3.30137         1.67532
O          6.11263        -0.72451        -1.70682
H          6.04160        -1.65825        -2.00709
O          6.27168        -4.05191        -1.64438
O          3.17728        -7.69017        -1.97948
H          3.89207        -8.07323        -2.52740
O         -1.75839         3.46412        -2.07567
O          2.12048        -2.09527         1.49583
O          1.95734         3.37548         1.07419
O          3.93451        -5.32069        -1.59792
O         -5.80584        -1.04857         2.16641
H         -6.28727        -0.34124         2.65617
O          3.85851         3.67273        -2.04768
H          3.07945         4.21430        -2.34565
O         -4.35525         3.79285        -2.13273
H         -3.59370         3.93194        -2.74118
O         -0.50981         4.95755         1.18409
O          0.08997         1.65195        -2.56064
H          0.58763         0.87701        -2.91065
O          0.74312         7.47560         1.69361
O          2.39242        -5.39232         1.80363
H          2.18066        -4.44353         1.93984
O          7.37632        -2.14572         1.40573
O         -4.38752         0.80672        -1.96995
H         -3.73066         0.50464        -2.63271
O         -8.41465        -3.33886         2.49847
H         -7.48852        -3.61549         2.72181
O          8.66889         3.60569        -1.39596
H          9.49434         4.00207        -1.74601
O          8.84162        -0.45036        -1.56643
H          7.93717        -0.23098        -1.89877
O          8.63402         0.31389         2.01481
H          8.32609         1.10656         2.50255
O          4.51897         7.77338        -1.36371
O         -6.08192         7.89639        -2.21320
H         -6.07335         6.95591        -2.49580
O         -9.29269        -1.37411        -0.87266
O         -3.31236         7.48937         1.52355
O         -5.87949        -4.07970         2.07623
O         -4.26463         2.39917         1.26419
O          1.32005         5.23987        -1.93465
O         -2.06917        -5.36494        -1.95853
O          5.34018        -7.51070         1.06833
H         12.12996        -1.30239         0.54172
H         12.16063         1.12895         0.62791
H         10.97497         3.32471         0.33194
H          9.64488         5.58901         0.67521
H          8.39049         7.74406         0.87615
H          7.14793         9.95018         0.71154
H          5.05059        11.17330         0.61341
H          2.53718        11.21347         0.50050
H         -0.01059        11.15084         0.22658
H         -2.47382        11.13725         0.04512
H         -5.04580        11.14512        -0.00899
H         -7.11061         9.93518        -0.44167
H         -8.42877         7.65870        -0.58648
H         -9.62850         5.45846        -0.38992
H        -10.79617         3.26227        -0.17977
H        -11.95289         1.25193         0.15109
H        -12.28892        -1.05881         0.53249
H        -10.67788        -3.14755         1.63228
H         -9.46147        -5.56320         0.79653
H         -8.27992        -7.67378         0.99507
H         -7.10717        -9.84825         0.96300
H         -5.09397       -11.17122         0.41438
H         -2.55166       -11.14295        -0.12779
H         -0.15155       -11.10717        -0.26011
H          2.32142       -11.12214        -0.08490
H          4.82262       -11.14970        -0.47036
H          6.96364        -9.98248        -0.42524
H          8.33064        -7.73928        -0.12632
H          9.61835        -5.60410        -0.25410
H         10.87323        -3.46779         0.33356
