         424
 CSIRO Nanostructure Databank - Neutral Graphene Oxide Data Set
C          1.37561         3.84396        -2.61186
C          0.16995         4.53683        -2.58041
C          1.25621         6.50718        -1.60679
C          0.10216         5.84874        -2.10348
C          1.23603         7.92276        -1.26589
C          0.00698         8.68626        -1.29420
C          1.26961        10.83874        -1.33435
C          0.00005        10.03979        -1.24098
C          1.22917        12.19230        -0.67162
C          0.01615        12.85707        -0.34255
C          1.18052        15.03465        -0.52402
C         -0.01698        14.21229        -0.14894
C          1.17887        16.44845         0.01444
C         -0.02743        17.16168         0.04660
C          1.13900        19.22985         0.56615
C         -0.05698        18.52237         0.33044
C          1.14975        20.69630         0.67781
C         -0.00145        21.44641         0.36916
C          1.14709        23.52261         0.91438
C         -0.00245        22.82741         0.48617
C          1.13534        24.97477         1.03951
C         -0.06249        25.70967         0.98500
C          1.14824        27.82942         1.04265
C         -0.06094        27.09820         1.00844
C          1.15950        29.26566         1.04265
C         -0.00395        30.04634         1.08760
C          1.25822        32.13964         0.80242
C          0.04541        31.44232         1.07345
C          1.29622        33.57382         0.63846
C          0.22410        34.40746         1.04796
C          1.46353        36.40095         0.40691
C          0.31649        35.78447         0.97177
C          1.58773        37.84326         0.35401
C          3.80643         3.76865        -2.13514
C          2.56085         4.45627        -2.12258
C          3.67571         6.35889        -0.99004
C          2.47431         5.77745        -1.59139
C          3.64713         7.86180        -0.65827
C          2.42780         8.62262        -0.96963
C          3.68402        10.72054        -0.58771
C          2.48237        10.04149        -0.91457
C          3.71542        12.14885        -0.44206
C          2.46422        12.89523        -0.48539
C          3.74120        15.06031        -0.37992
C          2.45968        14.27806        -0.29313
C          3.67220        16.42480         0.27989
C          2.38451        17.11973         0.32967
C          3.64555        19.25898         0.76306
C          2.34500        18.50466         0.62941
C          3.52716        20.59880         1.51409
C          2.32439        21.39087         1.05598
C          3.56052        23.49262         1.71581
C          2.32847        22.78780         1.18096
C          3.60625        24.95659         1.32263
C          2.37259        25.67699         1.14541
C          3.64192        27.78496         0.99885
C          2.38232        27.09641         1.08684
C          3.68059        29.19307         0.84621
C          2.46858        29.99448         1.21623
C          3.63552        31.99342         0.15653
C          2.45461        31.39417         0.65887
C          3.59733        33.35344        -0.24335
C          2.46837        34.17291         0.08300
C          3.62286        36.24325        -0.78477
C          2.49937        35.58952        -0.09030
C          3.82230        37.69832        -0.62843
C          2.71889        38.45913        -0.10002
C          6.26271         3.71723        -1.78700
C          5.01470         4.38549        -1.72126
C          6.16996         6.41465        -0.90066
C          4.97836         5.72323        -1.20976
C          6.13769         7.83003        -0.60882
C          4.92914         8.56782        -0.59298
C          6.13030        10.65408        -0.14154
C          4.91297         9.97680        -0.45138
C          6.13056        12.08581         0.09082
C          4.91599        12.82964        -0.11827
C          6.10599        14.91303         0.45839
C          4.94706        14.25521         0.04019
C          6.09769        16.34168         0.72072
C          4.83003        17.04426         0.68060
C          6.07576        19.16334         1.28593
C          4.77057        18.39441         1.36225
C          6.05580        20.60014         1.31774
C          4.83943        21.33834         1.38277
C          6.07242        23.43967         1.40025
C          4.84924        22.74066         1.41844
C          6.07581        24.92060         1.70909
C          4.81404        25.62960         1.27913
C          6.09757        27.72720         0.87301
C          4.85454        27.04259         1.02640
C          6.11047        29.11002         0.54910
C          4.88423        29.84652         0.52726
C          6.08716        31.83525        -0.26201
C          4.88471        31.23794         0.12807
C          6.07257        33.16378        -0.90076
C          4.75721        33.92432        -0.94321
C          6.11573        36.05510        -1.34843
C          4.80906        35.39994        -1.19773
C          6.17038        37.49016        -1.39172
C          5.01122        38.26777        -1.03249
C          8.70872         3.68384        -1.45951
C          7.46083         4.35584        -1.39694
C          8.63933         6.41186        -0.65773
C          7.42473         5.73321        -0.97918
C          8.59364         7.79415        -0.36627
C          7.36652         8.52159        -0.40350
C          8.56881        10.57359         0.31536
C          7.32441         9.91711        -0.10777
C          8.55525        12.02804         0.66334
C          7.30194        12.76084         0.46278
C          8.53687        14.81601         1.01296
C          7.33115        14.17545         0.64412
C          8.49581        16.24835         1.37164
C          7.25428        17.00775         1.11633
C          8.53794        19.16377         1.30384
C          7.27613        18.45366         1.26593
C          8.53515        20.58913         1.28604
C          7.29647        21.30944         1.29321
C          8.55348        23.44857         1.34874
C          7.29556        22.73426         1.34005
C          8.54713        24.88922         1.25971
C          7.34037        25.61499         1.27071
C          8.57401        27.69742         0.80312
C          7.33482        26.99784         0.97886
C          8.57646        29.09723         0.43701
C          7.35277        29.78644         0.28634
C          8.56104        31.81426        -0.48250
C          7.34279        31.15293        -0.14944
C          8.57468        33.19417        -0.92174
C          7.33207        33.91067        -1.07167
C          8.54616        35.92588        -1.94144
C          7.30200        35.28660        -1.36775
C          8.60503        37.43608        -1.80293
C          7.40092        38.14685        -1.59625
C         11.16746         3.65972        -1.25434
C          9.92200         4.32744        -1.13296
C         11.13482         6.34551        -0.46086
C          9.90401         5.70706        -0.71983
C         11.14747         7.78010        -0.09648
C          9.83887         8.51038        -0.03246
C         11.08315        10.72212         0.11341
C          9.82244        10.00669        -0.28975
C         11.07680        12.03119         0.54557
C          9.82996        12.76155         0.71879
C         11.05217        14.78854         1.50688
C          9.78945        14.12007         1.00309
C         11.07871        16.29421         1.33572
C          9.79534        17.00722         1.53642
C         10.99800        19.18214         1.36644
C          9.77636        18.47747         1.36839
C         10.99868        20.58598         1.33260
C          9.77418        21.29810         1.31153
C         11.02294        23.45020         1.24188
C          9.76267        22.73901         1.33938
C         11.01108        24.86899         1.18665
C          9.79428        25.59444         1.15487
C         11.06682        27.78827         1.09080
C          9.78276        27.00987         0.98679
C         11.04468        29.12998         0.41107
C          9.81317        29.78035         0.18179
C         11.04218        31.80507        -0.51594
C          9.80303        31.13520        -0.29472
C         11.04600        33.17297        -0.96588
C          9.80120        33.83868        -1.16442
C         11.03773        35.84265        -2.16495
C          9.83036        35.33412        -1.36943
C         11.07176        37.36081        -2.10587
C          9.83506        38.07422        -1.91877
C         13.60544         3.52527        -1.27539
C         12.40376         4.26604        -0.95927
C         13.57811         6.45449        -0.42908
C         12.37822         5.66206        -0.54585
C         13.56962         7.91338        -0.45774
C         12.37239         8.57129        -0.30033
C         13.60395        10.72473         0.09315
C         12.34239        10.07474        -0.38975
C         13.59181        12.06977         0.48892
C         12.33683        12.76130         0.71135
C         13.54556        14.85878         1.07896
C         12.32104        14.10672         1.05300
C         13.52630        16.27252         1.16025
C         12.26167        16.97962         1.29826
C         13.52033        19.17192         1.09807
C         12.30206        18.45524         1.64228
C         13.51070        20.55563         0.98766
C         12.31552        21.31315         1.54316
C         13.39601        23.42704         0.46449
C         12.23259        22.74788         1.11807
C         13.52153        24.86155         0.86544
C         12.31290        25.60850         1.34890
C         13.55773        27.70241         0.72577
C         12.24944        26.94978         0.60615
C         13.52756        29.12118         0.47619
C         12.27865        29.78739         0.21523
C         13.51166        31.83917        -0.39634
C         12.27583        31.14759        -0.24117
C         13.52059        33.18294        -0.89769
C         12.28205        33.84513        -1.18151
C         13.50164        35.85439        -1.91875
C         12.32325        35.21230        -1.66715
C         13.50878        37.20091        -2.60998
C         12.26365        37.99489        -2.31139
C         16.17857         3.48196        -1.15486
C         14.87012         3.80404        -0.74444
C         16.09003         6.43319        -0.59427
C         14.80988         5.85090        -0.22792
C         16.10689         7.95699        -0.62429
C         14.82019         8.65478        -0.40177
C         16.12400        10.77296        -0.13476
C         14.82348        10.00765        -0.08377
C         16.07165        12.09569         0.59128
C         14.83650        12.75009         0.75644
C         15.99696        14.89706         1.08230
C         14.79671        14.16913         1.02315
C         15.98337        16.30164         0.93678
C         14.73781        17.00143         0.99670
C         15.93279        19.11277         0.56947
C         14.72455        18.42974         0.88060
C         15.93172        20.53536         0.43687
C         14.70714        21.26421         0.61924
C         15.89351        23.42243         0.39934
C         14.69228        22.68244         0.53517
C         15.94134        24.81995         0.53090
C         14.72803        25.54210         0.81047
C         16.03084        27.74363         1.07875
C         14.73356        27.00351         0.88458
C         15.99419        29.16637         0.58166
C         14.75069        29.82412         0.35015
C         15.96747        31.89752        -0.21638
C         14.74342        31.19302        -0.09069
C         15.97098        33.24383        -0.69303
C         14.75368        33.84556        -1.09252
C         15.99442        35.97544        -1.56321
C         14.80832        35.11475        -1.88878
C         15.94120        37.38193        -1.85769
C         14.76120        37.97932        -2.32767
C         18.60831         3.58911        -0.82227
C         17.33634         4.24639        -0.75876
C         18.54385         6.36446        -0.24591
C         17.33182         5.64051        -0.44996
C         18.56585         7.78802        -0.02761
C         17.35906         8.60273        -0.16234
C         18.50731        10.54122         0.89563
C         17.32435         9.92082         0.20194
C         18.51848        12.05914         0.83946
C         17.30075        12.74595         0.87667
C         18.51428        14.92994         1.02990
C         17.27219        14.17542         1.40689
C         18.46864        16.25909         0.60234
C         17.20105        16.99777         0.62019
C         18.31842        19.07777        -0.19012
C         17.14648        18.37330         0.36485
C         18.34895        20.55217        -0.15479
C         17.14573        21.22711         0.11588
C         18.41093        23.43859        -0.21688
C         17.10018        22.68528        -0.03299
C         18.46785        24.85995         0.15442
C         17.26574        25.51171         0.78060
C         18.44859        27.69555         0.42974
C         17.24658        27.00081         0.58358
C         18.45980        29.14174         0.47476
C         17.20681        29.85170         0.44140
C         18.40677        31.98718         0.07487
C         17.20932        31.26196         0.10727
C         18.41166        33.36108        -0.32851
C         17.19794        33.97643        -0.74429
C         18.37842        36.14477        -0.98643
C         17.17924        35.37297        -1.11054
C         18.33630        37.55039        -1.27103
C         17.12608        38.15101        -1.67209
C         19.77819         4.25167        -0.54489
C         20.99588         6.33578        -0.00715
C         19.78141         5.64604        -0.25111
C         21.00041         7.69358         0.23342
C         19.79244         8.44626         0.23204
C         20.96626        10.61764         0.58425
C         19.80893         9.87779         0.50312
C         20.94963        12.00936         0.89205
C         19.77348        12.73276         0.99220
C         21.00383        14.94798         0.80284
C         19.80962        14.22051         1.33546
C         20.92449        16.23599         0.36495
C         19.68492        16.93548         0.25408
C         20.86998        19.12942        -0.31812
C         19.65025        18.30467        -0.27266
C         20.82043        20.47823        -0.41435
C         19.59327        21.25021        -0.34196
C         20.86727        23.42047        -0.31820
C         19.65688        22.66055        -0.27850
C         20.86742        24.79076        -0.22459
C         19.67196        25.53918         0.08061
C         20.88401        27.72850         0.25170
C         19.70073        26.98984         0.26488
C         20.88024        29.12972         0.36106
C         19.68369        29.84856         0.45091
C         20.89733        32.09209         0.27488
C         19.64832        31.35259         0.66505
C         20.86437        33.39530        -0.10666
C         19.63340        34.10620        -0.34285
C         20.77335        36.32440        -0.53013
C         19.61137        35.51849        -0.62229
C         20.72214        37.69896        -0.78625
C         19.53230        38.31501        -1.15088
O         17.51534        23.15757        -1.37157
O          3.47704         6.85173         0.38496
O          5.21286        33.16374        -2.10795
O          9.05862        16.53562         2.73200
O          3.80369        35.81135        -2.18548
O         16.10057         7.20133        -1.86939
O         18.78604        18.48380        -1.44881
O          8.55753        10.95507         1.71230
O         10.48095         8.08931         1.20411
O         14.84272         4.63259         0.42280
O         12.52319        21.32776         2.99811
H         12.56281        20.38131         3.29073
O          3.91638        15.34224        -1.82380
H          3.00774        15.50211        -2.18596
O         11.25762        28.09021         2.51702
H         10.46191        28.57158         2.82844
O          8.46503        35.61489        -3.35294
H          7.59303        35.91803        -3.68085
O          9.65244        10.18951        -1.72811
H         10.55734        10.16325        -2.13513
O         11.01479        14.60263         2.96363
H         10.21916        15.09698         3.28270
O         15.01756        34.68517        -3.31674
H         14.40116        33.93757        -3.47893
O          1.11831        15.21857        -2.01525
H          0.99670        14.32056        -2.39783
O         18.33040        10.22087         2.32685
H         19.07870        10.63164         2.81057
O         19.95981        14.22427         2.82942
H         20.08967        15.15980         3.09783
O         19.52586        31.51861         2.13004
H         19.49129        32.48262         2.30810
O          3.46414        23.47198         3.18582
H          3.41539        22.52292         3.44967
O          2.60065        30.17747         2.69149
H          1.79292        30.65014         2.98833
O         17.46093        25.32798         2.24723
H         16.89937        26.01688         2.68718
O         17.25337        14.02950         2.87142
H         18.18806        13.85757         3.15211
O          4.04279        19.62355        -0.58578
H          4.05554        18.80650        -1.12831
O         16.21495        27.81403         2.56240
H         16.96403        28.42869         2.72567
O         16.28677        11.14129        -1.55623
H         16.27862        10.30943        -2.07809
O         13.03375        23.48546        -1.01133
H         13.84387        23.26850        -1.52361
O          1.45248        11.13873        -2.78353
H          1.50284        10.27705        -3.25020
O          3.30808        20.39941         2.95165
H          2.43562        19.96199         3.05948
O         12.52586        25.79774         2.77100
H         11.99104        26.57685         3.06083
O         12.33948        10.34437        -1.87848
H         12.66631        11.26233        -2.00504
O          6.06302        24.99085         3.17966
H          5.21852        24.56929         3.47220
O          9.95614        35.88411        -0.02431
H         10.78287        35.53174         0.36841
O         12.46436        18.50373         3.10933
H         11.75168        17.95736         3.50684
O          4.51071        18.08794         2.75483
H          4.45068        18.94283         3.24332
O         11.99886        26.67246        -0.79005
H         12.54503        25.89985        -1.05698
O         13.49097        36.88840        -4.05927
H         14.19960        36.20742        -4.18810
O         10.96037        35.44275        -3.54992
H         11.69467        35.90851        -4.01805
H          1.41950         2.81957        -3.00758
H         -0.74411         4.05429        -2.95447
H         -0.86367         6.37011        -2.13157
H         -0.95232         8.15005        -1.32224
H         -0.96190        10.57032        -1.27761
H         -0.91144        12.27740        -0.22933
H         -0.96499        14.70046         0.11431
H         -0.97039        16.65719        -0.20303
H         -1.02356        19.04263         0.32209
H         -0.91675        20.94582         0.02788
H         -0.91808        23.37699         0.23170
H         -1.02817        25.18863         0.93732
H         -1.02372        27.62538         0.97941
H         -0.99186        29.56600         1.12786
H         -0.89783        32.00033         1.14271
H         -0.67972        33.95784         1.48151
H         -0.50565        36.41425         1.34072
H          0.75406        38.44567         0.74365
H          3.83799         2.73692        -2.51483
H          2.80321        39.55549        -0.07072
H          6.29839         2.67872        -2.14784
H          5.12746        39.36123        -0.97951
H          8.73248         2.63579        -1.79403
H          7.43128        39.24607        -1.53797
H         11.16378         2.61640        -1.60378
H          9.87436        39.17512        -1.87745
H         13.51130         2.71592        -2.01474
H         12.31898        39.09485        -2.31981
H         16.34400         2.60766        -1.80213
H         14.77904        39.04605        -2.59907
H         18.63226         2.51981        -1.07748
H         17.10360        39.23028        -1.88438
H         20.73753         3.71448        -0.57141
H         21.93995         5.77202        -0.00677
H         21.95562         8.19516         0.43885
H         21.94542        10.14995         0.40883
H         21.91875        12.51068         1.01507
H         21.98781        14.46213         0.85392
H         21.84786        16.73230         0.03466
H         21.85178        18.63707        -0.28008
H         21.77193        21.02268        -0.47973
H         21.82930        22.91082        -0.46411
H         21.82519        25.32123        -0.31219
H         21.85370        27.21935         0.16614
H         21.84624        29.65202         0.36157
H         21.87283        31.61604         0.44848
H         21.81684        33.91746        -0.27830
H         21.73398        35.87748        -0.24148
H         21.64079        38.29619        -0.69843
H         19.50424        39.39412        -1.35828
