         324
 CSIRO Nanostructure Databank - Neutral Graphene Oxide Data Set
C          1.46685         2.05570         1.98631
C          1.38586         3.46918         1.71374
C          2.59633         1.34496         1.71848
C          2.38250         4.13826         1.06497
C          1.35070         6.44371         1.51807
C          1.34618         7.79236         1.33575
C          2.27765         5.59804         0.76136
C          2.37242         8.48989         0.60378
C          1.14338        10.74020         0.88836
C          1.18441        12.10311         0.86803
C          2.24402         9.93873         0.35099
C          2.36790        12.83924         0.51883
C          1.12348        15.11728         0.54025
C          1.08372        16.39533         0.13611
C          2.41853        14.35554         0.73266
C          2.27808        17.13960        -0.43159
C          2.32644        18.60412        -0.07753
C          3.76115         1.99185         1.15515
C          3.58037         3.37699         0.62095
C          4.94785         1.33078         1.01371
C          4.75938         4.10324         0.03242
C          3.45207         6.34495         0.10677
C          3.52522         7.81914         0.19142
C          4.69946         5.58849        -0.24722
C          4.77998         8.53141        -0.04987
C          3.55381        10.70960         0.02284
C          3.54848        12.16085         0.24607
C          4.82006         9.95154         0.04711
C          4.82986        12.85929         0.25065
C          3.51986        14.93263        -0.17239
C          3.56745        16.43659        -0.10601
C          4.81403        14.23683         0.16669
C          4.76566        17.14512        -0.00921
C          3.49105        19.27789         0.03396
C          4.78471        18.61312        -0.04460
C          6.20095         2.05889         0.72903
C          6.12106         3.51575         0.29471
C          7.44291         1.35531         0.43527
C          7.33142         4.15076        -0.25681
C          5.97237         6.34624        -0.45163
C          6.00804         7.81716        -0.20093
C          7.26882         5.58969        -0.58474
C          7.23871         8.50254        -0.14124
C          6.05598        10.64547         0.13545
C          6.08170        12.10658         0.29347
C          7.26046         9.90048         0.05666
C          7.28493        12.79232         0.36682
C          6.01278        15.02561         0.42584
C          5.99486        16.46766         0.13907
C          7.31377        14.25500         0.56705
C          7.23625        17.18215        -0.14822
C          5.96900        19.31556        -0.06882
C          7.26527        18.66707        -0.12394
C          8.59767         2.05066         0.09654
C          8.54725         3.48527        -0.17528
C          9.84788         1.36729        -0.02247
C          9.80120         4.19072        -0.37767
C          8.55435         6.35203        -0.52709
C          8.55011         7.74856         0.04770
C          9.82116         5.60000        -0.42574
C          9.81402         8.48382        -0.36022
C          8.57492        10.57150         0.21622
C          8.58253        12.07608         0.37995
C          9.81782         9.91634        -0.25192
C          9.82247        12.78417         0.01906
C          8.59506        15.00658         0.34167
C          8.50954        16.41718        -0.17504
C          9.85801        14.25830         0.07559
C          9.79905        17.18210        -0.12582
C          8.45660        19.34960        -0.14999
C          9.77944        18.67695        -0.14910
C         11.05117         2.03656        -0.27624
C         11.03199         3.48524        -0.42730
C         12.28810         1.33659        -0.29896
C         12.23423         4.19908        -0.62829
C         11.02585         6.32547        -0.55437
C         10.98072         7.77591        -0.60097
C         12.25424         5.61327        -0.67908
C         12.22923         8.50519        -1.04227
C         11.00355        10.65110        -0.39599
C         10.98586        12.10292        -0.28747
C         12.25121         9.96132        -0.64058
C         12.22138        12.85148        -0.47521
C         10.97306        14.95122        -0.65200
C         10.93409        16.44422        -0.76795
C         12.26783        14.22763        -0.68789
C         12.18553        17.21227        -1.06241
C         11.03646        19.36388        -0.50186
C         12.22679        18.67047        -0.75480
C         13.51431         1.99056        -0.53041
C         13.47750         3.43559        -0.85050
C         14.75245         1.33575        -0.48283
C         14.78724         4.19652        -0.85270
C         13.51767         6.34539        -0.71300
C         13.50677         7.76397        -0.70112
C         14.75113         5.65313        -0.64883
C         14.71880         8.46607        -0.56337
C         13.45876        10.62828        -0.55186
C         13.46452        12.09462        -0.34429
C         14.72780         9.92798        -0.56533
C         14.74326        12.86407        -0.58120
C         13.49419        14.95671        -0.91865
C         13.47105        16.42730        -1.16170
C         14.72471        14.29672        -0.92477
C         14.72683        17.18050        -1.05360
C         13.49203        19.30377        -0.79863
C         14.72604        18.58972        -0.94398
C         16.00604         2.03032        -0.52867
C         16.03229         3.46149        -0.58984
C         17.22967         1.33808        -0.42379
C         17.23931         4.17450        -0.47190
C         15.97398         6.34625        -0.47083
C         15.93758         7.75745        -0.42006
C         17.23934         5.62148        -0.42592
C         17.18317         8.50519        -0.20344
C         15.93094        10.62609        -0.58132
C         15.93571        12.06526        -0.92722
C         17.20659         9.95238        -0.50806
C         17.22141        12.82733        -1.01637
C         15.99146        14.97350        -1.10935
C         15.96929        16.44506        -1.30384
C         17.20838        14.30636        -0.98941
C         17.26575        17.21088        -1.33755
C         15.98209        19.28188        -0.84575
C         17.23161        18.64338        -0.93722
C         18.47000         2.02628        -0.40814
C         18.47725         3.46534        -0.42108
C         19.70247         1.33363        -0.37466
C         19.71399         4.17055        -0.43594
C         18.46133         6.29680        -0.35302
C         18.49064         7.75683        -0.17450
C         19.71724         5.61121        -0.42070
C         19.74307         8.47945        -0.42779
C         18.40209        10.62137        -0.58947
C         18.41124        12.09609        -0.51710
C         19.71929         9.92938        -0.81780
C         19.66769        12.85116        -0.27272
C         18.49286        14.98333        -0.89356
C         18.55173        16.44286        -1.20600
C         19.65135        14.31304        -0.55007
C         19.80353        17.22271        -0.98400
C         18.43919        19.31716        -0.66574
C         19.72443        18.68821        -0.72229
C         20.93934         2.02061        -0.41442
C         20.93887         3.46218        -0.46623
C         22.16872         1.32255        -0.40340
C         22.18041         4.17177        -0.55609
C         20.93752         6.32954        -0.42719
C         20.94741         7.78355        -0.44822
C         22.18522         5.62909        -0.51145
C         22.19226         8.51511        -0.43695
C         20.95075        10.68874        -0.36996
C         20.94832        12.09028        -0.24554
C         22.17901         9.96896        -0.32819
C         22.15651        12.79426        -0.06289
C         20.87803        15.04875        -0.14888
C         20.98222        16.53383        -0.35617
C         22.14301        14.26893         0.08533
C         22.30140        17.20404        -0.53279
C         20.89955        19.34924        -0.46101
C         22.27335        18.74949        -0.68570
C         23.41155         2.00203        -0.53198
C         23.37586         3.44932        -0.63886
C         24.62383         1.29495        -0.61069
C         24.64399         4.17122        -0.78498
C         23.38600         6.35899        -0.47650
C         23.41247         7.79361        -0.37949
C         24.67208         5.66970        -0.63165
C         24.66523         8.46981        -0.25121
C         23.39248        10.68219        -0.18883
C         23.38828        12.09294        -0.05586
C         24.70149         9.96325        -0.42942
C         24.64282        12.84325        -0.05646
C         23.44919        15.00970        -0.12139
C         23.44858        16.43642        -0.56638
C         24.67940        14.19752        -0.22472
C         24.77915        17.00773        -0.69605
C         23.28833        19.35994         0.28949
C         24.62033        19.11678         0.08793
C         25.91538         1.99340        -0.95192
C         25.86487         3.40269        -0.40351
C         27.18680         1.29514        -0.55810
C         27.10720         4.14913        -0.06054
C         25.91956         6.34763        -0.20403
C         25.89079         7.77497        -0.08373
C         27.10536         5.62984        -0.03149
C         27.12416         8.45236         0.24622
C         25.85858        10.60191         0.30325
C         25.88378        12.11017         0.29466
C         27.14181         9.89371         0.39790
C         27.19330        12.75942         0.24490
C         25.96999        14.88852        -0.59321
C         25.92665        16.37614        -0.29149
C         27.25000        14.17189        -0.16466
C         27.02126        17.12503         0.39006
C         25.82749        19.40242         0.79683
C         27.00536        18.61214         0.67066
C         28.36499         1.99883        -0.32382
C         28.38380         3.43046        -0.15066
C         29.63551         1.30922        -0.27897
C         29.58158         4.14413         0.01243
C         28.33452         6.29782         0.26137
C         28.29766         7.70872         0.46290
C         29.57531         5.56744         0.27304
C         29.49112         8.37668         1.01938
C         28.27935        10.61548         0.75125
C         28.33786        12.06074         0.62494
C         29.48368         9.87206         1.18236
C         29.60091        12.78081         0.83390
C         28.46508        14.94264         0.26334
C         28.30311        16.37629         0.67303
C         29.62264        14.20052         0.81416
C         29.54826        17.10807         0.98510
C         28.21232        19.19234         1.08580
C         29.47118        18.51438         1.16441
C         30.80848         1.99918        -0.17614
C         30.82813         3.43009        -0.03626
C         32.02941         4.13968         0.09259
C         30.81999         6.23297         0.46003
C         30.82274         7.64012         0.95016
C         32.02020         5.51629         0.33346
C         32.03370         8.48335         0.86047
C         30.80067        10.60664         1.29996
C         30.80341        12.08915         1.13131
C         32.02454         9.82305         1.02903
C         31.96768        12.82022         1.40378
C         30.79325        14.93425         1.12485
C         30.76596        16.41112         1.15386
C         31.96439        14.21354         1.41830
C         31.92591        17.16423         1.42702
C         30.65766        19.23069         1.45784
C         31.86748        18.55609         1.56321
O         10.04511        17.84248         1.13037
O         16.58011        16.90698        -2.58465
O         18.76461        12.52516         0.85918
O         26.20730         3.54009         0.99380
O          2.62547        10.28559        -1.01491
O          8.73382        11.18227         1.55028
O         17.82613         8.20152         1.08836
O         27.26732        16.46597         1.71678
O          6.33922         3.18532         1.71206
O          3.86711         3.36169        -0.84023
O         19.47728        16.75788        -2.32232
O          5.11747         5.96431        -1.59390
O          6.61045        14.71286         1.76006
O         14.29964        12.55931         0.78080
O         10.51794        15.59991        -1.88444
O         14.13596         3.77606        -2.11631
O          7.81763        16.57325        -1.43941
O         30.01652        10.25464         2.49060
O         12.72378        16.87109        -2.36882
O         20.63199        16.00301         0.95989
O         16.57113        12.30373        -2.22335
O         24.90763        18.34676        -1.07029
O         22.87096        14.79721         1.22392
O          9.57190        14.82992         1.40764
O         25.58532        11.33152         1.52486
O          7.93151         6.07744        -1.81263
O         30.05292         7.72191         2.19568
O          2.30167         5.88864        -0.67110
O         24.79229         5.00976        -1.96861
O         28.30279        14.55298        -1.14524
O          2.84056        14.57953         2.10085
H          2.15417        14.21974         2.69949
O         12.17468         8.51814        -2.51567
H         12.12479         7.58636        -2.81956
O          3.15008        14.56717        -1.54293
H          3.93445        14.70079        -2.11611
O         19.83058         9.91687        -2.30467
H         20.66484         9.45204        -2.53203
O          2.10456        17.08163        -1.88820
H          2.17286        16.12534        -2.12889
O         25.96256         2.13425        -2.41733
H         25.84280         1.24438        -2.81011
O         25.95013        14.81868        -2.05990
H         26.88611        14.90364        -2.35873
O         22.59948        19.10770        -2.04667
H         23.55047        18.88770        -2.18733
O          8.64697         7.54062         1.49401
H          8.76713         8.41791         1.91842
O         25.02460        10.18633        -1.85243
H         24.39521         9.66137        -2.39096
H          0.59942         1.56483         2.44830
H          0.47761         3.99796         2.03478
H          2.66381         0.27847         1.97759
H          0.63939         5.98687         2.21968
H          0.58064         8.38832         1.85149
H          0.26039        10.23790         1.30645
H          0.30852        12.66038         1.23111
H          0.18729        14.63632         0.86813
H          0.11255        16.91309         0.07886
H          1.37042        19.14597        -0.01472
H          5.01900         0.26781         1.29057
H          3.48490        20.36515         0.20735
H          7.46122         0.25745         0.50087
H          5.94193        20.41598        -0.05656
H          9.86571         0.27949         0.14273
H          8.44449        20.45047        -0.16967
H         12.28622         0.25313        -0.10597
H         11.07285        20.45943        -0.39849
H         14.76979         0.24716        -0.32131
H         13.54014        20.39120        -0.63886
H         17.22627         0.23898        -0.37779
H         15.95963        20.36066        -0.62931
H         19.70035         0.23382        -0.34298
H         18.39713        20.38654        -0.40764
H         22.16130         0.22383        -0.34493
H         20.86593        20.42678        -0.23567
H         24.60811         0.19650        -0.53432
H         22.93692        19.89941         1.18010
H         27.23680         0.19976        -0.66806
H         25.89454        20.31845         1.40440
H         29.64132         0.21388        -0.37692
H         28.20474        20.26366         1.34023
H         31.76845         1.46231        -0.17997
H         32.98681         3.60149         0.04586
H         32.98065         6.03007         0.47604
H         32.98199         7.99950         0.58361
H         32.96321        10.37672         0.87633
H         32.89792        12.29026         1.65079
H         32.89744        14.73773         1.66259
H         32.89590        16.66530         1.55184
H         30.61249        20.32006         1.59672
H         32.78841        19.11498         1.78014
