         274
 CSIRO Nanostructure Databank - Neutral Graphene Oxide Data Set
C        -11.26067         0.58674        -0.02281
C        -10.09986         1.43364         0.47778
C         -8.79820         0.71958         0.09852
C         -7.51304         1.38106         0.53629
C         -6.22721         0.62099         0.51257
C         -4.91114         1.39626         0.68089
C         -3.70957         0.68966         0.05901
C         -2.53430         1.36259        -0.17110
C         -1.28812         0.67478        -0.60452
C          0.02702         1.40802        -0.62974
C          1.32802         0.63708        -0.61498
C          2.59454         1.38117        -0.24479
C          3.84358         0.60369         0.06337
C          5.08510         1.14582         0.76077
C          6.29204         0.66782        -0.08586
C          7.48156         1.51537        -0.09870
C          8.75627         0.96446        -0.67010
C         10.09446         1.65700        -0.35703
C         11.18120         0.66510         0.00955
C        -10.22024         2.92129         0.07051
C         -9.30223         3.83467        -0.24711
C         -7.38100         2.87029         0.77623
C         -6.33277         3.54439        -0.07064
C         -5.02984         2.78822         0.03885
C         -3.75814         3.56781         0.10796
C         -2.45546         2.84060         0.01976
C         -1.20928         3.64797        -0.26070
C          0.08083         2.89465        -0.33592
C          1.30582         3.46680         0.26208
C          2.46836         2.76112         0.28161
C          3.69311         3.40935         0.84035
C          4.98352         2.65738         1.01274
C          6.33435         3.33685         1.26919
C          7.47047         2.79500         0.42970
C          8.71320         3.54019         0.58195
C          9.94376         2.69627         0.75759
C         -8.78447         4.98299        -0.70398
C         -7.64060         5.81271        -0.06691
C         -6.35969         5.02832        -0.51852
C         -5.05605         5.77066        -0.17789
C         -3.76461         5.05053        -0.04179
C         -2.56814         5.66542         0.62565
C         -1.21384         5.14287         0.13767
C         -0.05025         5.55722         1.04918
C          1.28606         4.78341         1.03741
C          2.43113         5.67828         0.49030
C          3.75102         4.88853         0.55037
C          5.04715         5.60148         0.66562
C          6.23489         4.93352         1.40307
C          7.51333         5.67207         0.95987
C          8.72306         4.88920         0.79794
C         -7.46575         7.24490        -0.59032
C         -6.29482         7.92326        -0.38305
C         -5.14756         7.20379         0.24479
C         -3.87085         7.91409         0.63112
C         -2.60923         7.14003         0.94248
C         -1.29205         7.80171         0.91336
C         -0.09282         7.05599         1.34249
C          1.21874         7.83125         1.59730
C          2.49807         6.97618         1.30401
C          3.78745         7.71704         1.32834
C          5.01687         7.13505         0.62891
C          6.25969         7.80955         1.29821
C          7.49880         7.03171         0.90236
C         -6.06311         9.33174        -0.65806
C         -4.87162         9.95636        -0.41092
C         -3.69122         9.29330         0.12117
C         -2.42554         9.82451         0.02243
C         -1.20721         9.11981         0.41872
C          0.05939         9.74757         0.33572
C          1.27034         9.13016         0.76031
C          2.49857         9.74895         0.65672
C          3.71791         9.25761         1.42801
C          5.00516         9.90752         0.95173
C          6.18049         9.26467         0.88387
C        -11.23208        -0.75534        -0.09012
C        -10.03501        -1.56513         0.36520
C         -8.77049        -0.78322         0.03416
C         -7.47233        -1.54749         0.30733
C         -6.26519        -0.72346        -0.22098
C         -4.96119        -1.46269        -0.14507
C         -3.79298        -0.76215        -0.11319
C         -2.47104        -1.44897         0.12780
C         -1.33522        -0.84436        -0.69933
C         -0.03247        -1.60218        -0.27962
C          1.28181        -0.85364        -0.50965
C          2.47996        -1.59046         0.07317
C          3.82141        -0.89337        -0.03559
C          5.08222        -1.50718        -0.52745
C          6.26457        -0.58785        -0.66809
C          7.48616        -1.24557        -1.20436
C          8.77568        -0.46392        -1.12441
C         10.12240        -1.30909        -1.15898
C         11.20144        -0.62003        -0.35189
C         -9.94179        -3.01330        -0.10855
C         -8.75240        -3.70154        -0.21659
C         -7.47586        -2.98109        -0.18747
C         -6.28721        -3.63934        -0.27457
C         -4.95831        -2.94548        -0.43852
C         -3.80367        -3.57812         0.42681
C         -2.53305        -2.95594        -0.14665
C         -1.32145        -3.72171        -0.60781
C         -0.03062        -2.98454        -0.98217
C          1.21056        -3.79450        -0.65893
C          2.49433        -3.06316        -0.40514
C          3.72437        -3.64998        -1.05432
C          4.95028        -2.75824        -1.38622
C          6.23876        -3.58754        -1.40702
C          7.50242        -2.74596        -1.38586
C          8.84351        -3.55215        -1.29953
C          9.78103        -2.64630        -0.57531
C         -8.69461        -5.15897        -0.32724
C         -7.51126        -5.86572        -0.35632
C         -6.23781        -5.10868        -0.41499
C         -4.96156        -5.82072        -0.07657
C         -3.72290        -5.14172         0.54112
C         -2.44999        -5.83149         0.02609
C         -1.25975        -5.17987        -0.34952
C         -0.05837        -5.90148        -0.53616
C          1.16294        -5.23399        -1.17500
C          2.46355        -5.89381        -0.75261
C          3.72010        -5.15746        -1.10706
C          5.01324        -5.96986        -1.15503
C          6.27507        -5.07684        -1.20410
C          7.54450        -5.65642        -0.68036
C          8.67664        -4.92039        -0.64916
C         -7.42765        -7.32037        -0.29125
C         -6.26351        -8.00883        -0.02851
C         -5.01594        -7.26893         0.28025
C         -3.69689        -7.97689         0.38658
C         -2.43158        -7.23214         0.15285
C         -1.21906        -7.94955         0.08198
C         -0.02131        -7.26594        -0.21078
C          1.27952        -8.03163        -0.28434
C          2.49352        -7.12593        -0.20412
C          3.76243        -7.58842         0.41039
C          5.04198        -7.03014        -0.07152
C          6.22711        -7.62507         0.27533
C          7.52355        -7.14196        -0.34896
C         -6.16025        -9.45747         0.12577
C         -4.97816       -10.11734         0.23948
C         -3.64637        -9.44637        -0.01660
C         -2.39304       -10.07406         0.54386
C         -1.19484        -9.37133         0.46904
C          0.06894        -9.92238         0.84770
C          1.29761        -9.23040         0.65326
C          2.50146        -9.71909         1.14248
C          3.76322        -8.94707         1.10552
C          5.07916        -9.57661         1.26130
C          6.22454        -8.89924         0.96677
O         -6.45479        -0.41048        -1.61510
H         -5.82849        -0.95534        -2.15686
O          2.12304         6.00663        -0.87459
H          2.95387         5.91510        -1.39597
O          6.05006         5.19190         2.76296
O          6.36790        -4.49230        -2.55715
O          3.65924         1.23194        -1.24316
O          3.36965         6.93826         2.47116
O          4.72649        -1.63516         0.87671
O         -4.71970        -3.17170        -1.91950
O         -4.91336         7.62142         1.61675
O          0.05767        -2.84821        -2.40416
H         -0.85509        -2.89488        -2.76873
O          3.44131        -4.37329        -2.30594
O         -7.00040         0.71781         1.75709
O         -0.39283         6.02739         2.35115
O         -4.43921        -7.61731         1.58062
O          5.02396        -6.71575        -2.40063
H          4.97246        -6.04931        -3.12350
O          7.43302        -1.87287        -2.53957
O         -2.38376        -3.36551        -1.54264
O         -3.75948        -5.46467         1.90805
O          1.83429        -3.84694         0.65763
O         -0.72973         1.20051        -1.85636
O         -2.77413         6.09785         1.96541
O         -0.50745         3.55500        -1.52507
O         -5.27471        -5.59092        -1.45791
O         -8.81716         0.02916        -1.17302
O         -5.80539         2.73398        -1.17415
O          4.08941         2.93652         2.14722
O         -4.63125         1.51385         2.07755
H         -5.47403         1.39311         2.57339
O          4.98929         7.56630        -0.74525
H          4.97344         6.76182        -1.31410
O          1.48262        -0.22935        -1.78874
O          4.63075         5.05860        -0.63352
O          6.73735         2.85882         2.58481
H          6.47229         3.61886         3.19241
O          7.66908        -7.83949        -1.60058
H          6.86142        -7.65148        -2.13548
O         -7.37159        -1.78894         1.73866
H         -7.30232        -0.92330         2.20904
O         -4.10808         5.62511        -1.32315
O          1.22763         8.23020         2.91918
O         -1.67642        -1.08325        -2.07851
H         -1.11673        -0.47332        -2.61867
O          0.98849        -5.30123        -2.59450
H          1.11050        -6.23400        -2.86857
O         -0.14072        -1.89551         1.11187
H          0.66461        -2.38123         1.41594
O         -1.02686         5.91397        -1.07567
H         -0.51462         5.35479        -1.71181
O          8.71291         0.60469        -2.09800
O          1.35081        -8.60559        -1.63535
H          0.56069        -9.17517        -1.75669
O         -6.48496         5.02996        -1.94667
H         -5.63296         4.71647        -2.32566
O          3.64951        -7.67433         1.86662
O         -2.27979        -1.15770         1.52251
H         -2.94184        -1.70055         2.01990
O         10.52183         2.36960        -1.53159
H         10.31482         1.79571        -2.30500
O        -10.12196        -1.67625         1.81304
H         -9.24376        -2.00397         2.12688
O          3.47531         9.65910         2.78643
H          2.72571         9.08470         3.12764
O          5.23048         0.54534         2.05661
H          5.72958         1.19163         2.61552
O         -7.73377         5.94248         1.33916
H         -7.91863         5.06475         1.75591
O         -2.99713         3.24713         1.31569
O          1.60311         4.43897         2.38751
H          1.27610         5.15666         2.97941
O        -10.15855         1.46967         1.92243
H         -9.44136         2.06246         2.24460
O         -7.76867         3.33372         1.85318
O          6.13893         7.80070         2.72045
H          6.06375         6.84917         3.02191
O          9.78675         1.99515         2.00663
H          8.99050         2.34191         2.46861
O          4.73478        -2.23114        -2.69811
H          4.55703        -2.98765        -3.30015
O         -4.05466        -3.07319         1.74902
H         -4.00137        -3.86776         2.35593
O          9.26739        -3.78538        -2.65550
H          8.48883        -4.13447        -3.14582
O         -4.39471        -1.93786        -2.59280
H         -3.40178        -1.86650        -2.49245
O          2.28076        -1.56631         1.50892
H          3.11185        -1.87928         1.93292
O         10.54788        -1.38137        -2.51237
H         10.04460        -2.10587        -2.95627
O         -3.46277        -9.43803        -1.47336
H         -4.25562        -9.02441        -1.87731
H         12.07262        -1.24066        -0.09090
H         12.03819         1.07543         0.56593
H         10.86705         3.33464         0.79645
H          9.68934         5.40886         0.90095
H          8.41203         7.57870         0.61538
H          7.08923         9.79333         0.55622
H          4.94656        10.97549         0.68695
H          2.58447        10.66661         0.04780
H          0.09513        10.80704         0.03328
H         -2.30215        10.83069        -0.40638
H         -4.76774        11.01943        -0.67668
H         -6.89072         9.91573        -1.08824
H         -8.33045         7.76769        -1.02847
H         -8.91934         5.18376        -1.78509
H        -11.20157         3.33446         0.38432
H        -12.17333         1.12078        -0.33160
H        -12.12144        -1.29774        -0.44829
H        -10.88307        -3.58703        -0.12818
H         -9.64799        -5.70965        -0.28626
H         -8.36081        -7.89015        -0.42737
H         -7.09975       -10.02874         0.18878
H         -4.98630       -11.21011         0.37219
H         -2.41131       -11.10645         0.92619
H          0.08923       -10.90714         1.34158
H          2.50822       -10.68141         1.68081
H          5.12967       -10.61636         1.61699
H          7.19684        -9.38810         1.12624
H          8.39986        -7.41015         0.29034
H          9.60429        -5.39406        -0.29040
H          9.75165        -2.70714         0.52664
