         404
 CSIRO Nanostructure Databank - Neutral Graphene Oxide Data Set
C          1.37241         1.96033         0.41019
C          1.33712         3.38622         0.27831
C          2.55498         1.28313         0.54486
C          2.48716         4.13878         0.20446
C          1.30409         6.29154        -0.18472
C          1.29444         7.67246        -0.32379
C          2.49015         5.58355         0.08718
C          2.47708         8.43488        -0.19318
C          1.27038        10.58725        -0.54075
C          1.23138        11.97574        -0.51066
C          2.45918         9.88351        -0.26719
C          2.37940        12.72953        -0.21413
C          1.13607        14.97879        -0.49733
C          1.16825        16.34377        -0.52676
C          2.27921        14.19819        -0.02178
C          2.39083        17.08957        -0.38183
C          2.41780        18.50766        -0.60835
C          3.80997         1.98505         0.52641
C          3.82976         3.44373         0.10950
C          5.00000         1.36041         0.78543
C          4.90888         4.20626         0.87917
C          3.71806         6.32778         0.21683
C          3.69862         7.75432         0.06983
C          4.93995         5.66863         0.50726
C          4.90726         8.50208         0.25895
C          3.65991        10.62764        -0.03433
C          3.61644        12.06080        -0.01930
C          4.88863         9.93911         0.20325
C          4.85073        12.79862         0.15006
C          3.61916        14.98220         0.12310
C          3.60729        16.40641        -0.21986
C          4.87145        14.23073         0.05055
C          4.84831        17.06600        -0.46415
C          3.60223        19.18445        -0.73429
C          4.86091        18.49205        -0.71661
C          6.25682         2.08961         0.76370
C          6.24113         3.51056         0.74239
C          7.47851         1.41484         0.77538
C          7.44810         4.24012         0.68114
C          6.14886         6.39378         0.63615
C          6.10465         7.81778         0.56707
C          7.41610         5.69846         0.73172
C          7.29297         8.59488         0.93647
C          6.10254        10.68933         0.38136
C          6.06472        12.11123         0.31336
C          7.32798        10.03347         0.67217
C          7.28893        12.91073         0.68593
C          6.08428        14.92426        -0.19084
C          6.04322        16.32335        -0.49847
C          7.33965        14.24565        -0.02086
C          7.26419        16.99394        -0.95406
C          6.06950        19.16780        -0.90596
C          7.30911        18.47219        -0.98053
C          8.71241         2.12340         0.67325
C          8.68158         3.55269         0.59608
C          9.92242         1.40069         0.70437
C          9.91710         4.34221         0.22016
C          8.62739         6.40698         0.83507
C          8.61357         7.85254         1.12225
C          9.88762         5.75189         0.76569
C          9.86688         8.62174         0.99662
C          8.57824        10.75091         0.73699
C          8.57875        12.13770         0.60225
C          9.83891        10.02102         0.87082
C          9.84740        12.93929         0.74673
C          8.56395        14.87208        -0.27161
C          8.57530        16.22335        -0.87326
C          9.82006        14.25732         0.00721
C          9.81943        17.00056        -0.84038
C          8.53278        19.11946        -1.09118
C          9.78771        18.42301        -1.03044
C         11.22360         2.04573         0.60411
C         11.23968         3.58785         0.43258
C         12.44676         1.40836         1.06257
C         12.42857         4.27297         0.97204
C         11.07324         6.46065         1.01651
C         11.08746         7.88972         1.08369
C         12.30725         5.70284         1.33350
C         12.33502         8.61393         1.15862
C         11.08847        10.74307         0.76001
C         11.09867        12.13752         0.49666
C         12.32291        10.04808         0.92155
C         12.30191        12.81258         0.19726
C         11.02908        14.91468        -0.28600
C         11.02890        16.31580        -0.65961
C         12.29268        14.22830        -0.16930
C         12.26469        17.01319        -0.86113
C         10.99882        19.12954        -1.04468
C         12.25346        18.45798        -1.01501
C         13.65234         2.12148         1.05010
C         13.61597         3.57856         1.11246
C         14.90279         1.45326         1.08935
C         14.90483         4.26691         1.39410
C         13.57786         6.48273         1.61414
C         13.53653         7.93381         1.35859
C         14.90285         5.75531         1.59535
C         14.78997         8.67337         1.51379
C         13.53246        10.77782         0.78375
C         13.52474        12.10297         0.32563
C         14.81347        10.17213         1.19660
C         14.80949        12.73571        -0.04190
C         13.48076        14.90715        -0.47762
C         13.47196        16.29281        -0.83825
C         14.77449        14.18428        -0.49613
C         14.69584        16.95621        -1.30657
C         13.45554        19.18061        -1.02413
C         14.71494        18.52677        -1.33217
C         16.13165         2.14630         0.90437
C         16.14954         3.57777         0.95775
C         17.33376         1.45158         0.64205
C         17.32641         4.28496         0.65203
C         16.11815         6.53621         1.16523
C         16.07478         7.98687         1.50767
C         17.33549         5.78461         0.67909
C         17.19711         8.79675         1.63996
C         16.10778        10.80762         0.85923
C         16.07987        12.13131         0.39015
C         17.31309        10.12971         1.16771
C         17.29471        12.93604         0.48385
C         16.02242        14.94177        -0.54032
C         16.01275        16.25992        -1.17256
C         17.26172        14.38218        -0.04102
C         17.29225        17.06869        -1.16304
C         16.00448        19.20551        -1.14441
C         17.22974        18.55081        -1.10115
C         18.50945         2.14738         0.28429
C         18.47670         3.57690         0.22586
C         19.70949         1.45602        -0.05406
C         19.62916         4.26539        -0.39118
C         18.66920         6.44271         0.52251
C         19.00469         7.66326         1.03502
C         19.67936         5.78726        -0.32695
C         19.98281         8.54249         0.42138
C         18.66951        10.74079         0.86896
C         18.63072        12.23154         0.55253
C         19.84428         9.92347         0.36077
C         19.76124        12.93641        -0.09937
C         18.54010        15.06010        -0.35483
C         18.53428        16.39641        -0.71859
C         19.77228        14.30916        -0.34901
C         19.76191        17.12855        -0.80554
C         18.46108        19.24196        -0.92914
C         19.71296        18.57768        -0.85147
C         20.90227         2.12037        -0.42222
C         20.90842         3.55798        -0.57564
C         22.09770         1.40223        -0.64315
C         22.08571         4.24877        -0.88174
C         20.99637         6.44331        -0.43296
C         21.08180         7.82579        -0.19966
C         22.14183         5.71100        -0.84944
C         22.26255         8.52927        -0.54747
C         20.90131        10.62372        -0.42757
C         20.87895        12.14574        -0.60045
C         22.20419         9.93981        -0.62998
C         22.11395        12.84170        -1.01183
C         21.00186        14.98947        -0.73467
C         20.98038        16.43632        -0.80458
C         22.18519        14.27762        -0.99210
C         22.21200        17.17620        -0.80337
C         20.92492        19.28625        -0.73555
C         22.17375        18.61303        -0.66418
C         23.31140         2.06700        -0.93341
C         23.31687         3.50882        -1.04743
C         24.51786         1.34980        -1.09692
C         24.53272         4.17778        -1.24788
C         23.34839         6.40664        -1.09242
C         23.41592         7.82145        -0.99553
C         24.55012         5.64770        -1.59399
C         24.62084         8.58075        -1.26276
C         23.31618        10.63661        -1.14379
C         23.11609        12.00033        -1.50391
C         24.61462         9.98055        -1.28939
C         24.97051        13.07461        -1.38198
C         23.45964        15.07413        -1.36805
C         23.43559        16.49225        -0.83914
C         24.76012        14.38877        -0.97966
C         24.63582        17.17752        -0.51893
C         23.38788        19.30802        -0.49924
C         24.61333        18.61329        -0.36825
C         25.75528         2.01846        -1.22753
C         25.75757         3.46117        -1.24598
C         26.98686         1.32498        -1.33005
C         26.99856         4.15726        -1.17232
C         25.82994         6.32724        -1.18610
C         25.87462         7.80150        -1.32735
C         27.00137         5.60448        -1.05024
C         27.15108         8.51307        -0.94919
C         25.91242        10.77007        -1.20621
C         25.94149        12.22129        -0.84640
C         27.17831        10.01269        -0.80639
C         27.04365        12.84486        -0.21295
C         25.86796        15.02872        -0.38163
C         25.85416        16.47210        -0.27099
C         27.02918        14.27086        -0.06700
C         27.03947        17.16148         0.04479
C         25.82848        19.29735        -0.12758
C         27.04057        18.60355         0.05845
C         28.22130         2.01155        -1.32042
C         28.21651         3.44680        -1.15344
C         29.46507         1.34177        -1.43138
C         29.45248         4.13447        -0.93742
C         28.24690         6.25362        -0.69192
C         28.18169         7.67590        -0.27357
C         29.41444         5.53453        -0.57432
C         29.34129         8.34827         0.38697
C         28.20568        10.66886         0.05821
C         28.16958        12.04122         0.24666
C         29.33240         9.84981         0.59859
C         29.31108        12.78845         0.82877
C         28.22830        14.98158         0.34696
C         28.24506        16.44089         0.35692
C         29.36675        14.25586         0.63656
C         29.41460        17.15399         0.65163
C         28.27001        19.28655         0.24243
C         29.46094        18.58857         0.49888
C         30.69329         2.03716        -1.33824
C         30.67719         3.44856        -1.03605
C         31.93765         1.37853        -1.49637
C         31.92295         4.16088        -0.87475
C         30.65118         6.15267        -0.04112
C         30.63351         7.57281         0.49474
C         31.91761         5.50154        -0.44670
C         31.93233         8.34727         0.47226
C         30.60955        10.54583         1.02587
C         30.61403        12.05516         1.10788
C         31.92874         9.84535         0.77127
C         31.87759        12.81747         0.92419
C         30.59750        14.93647         1.08128
C         30.61437        16.44781         1.14251
C         31.87076        14.18805         0.94391
C         31.95248        17.18916         1.26450
C         30.70935        19.27771         0.56228
C         31.92962        18.62157         0.77012
C         33.17242         2.06571        -1.38367
C         33.16717         3.48058        -1.08415
C         34.40855         1.39352        -1.50331
C         34.38837         4.17507        -0.94312
C         33.13784         6.19301        -0.23864
C         33.15286         7.47243         0.39297
C         34.38043         5.54618        -0.52658
C         34.40298         7.93843         0.77330
C         33.14407        10.69897         1.02119
C         33.13180        12.09404         0.84197
C         34.41093        10.11307         1.21249
C         34.37652        12.81310         0.77764
C         33.10074        14.93185         0.59369
C         33.11139        16.43511         0.61989
C         34.39239        14.22618         0.64320
C         34.41821        17.11673         0.66700
C         33.16811        19.26433         0.66198
C         34.41309        18.54943         0.72364
C         35.64572         2.07078        -1.34936
C         35.64353         3.48472        -1.10000
C         36.89294         1.39849        -1.41861
C         36.86942         4.17734        -0.98943
C         35.59878         6.27558        -0.43113
C         35.62341         7.52375         0.19626
C         36.85834         5.64858        -0.87294
C         36.80885         8.44166         0.07648
C         35.61812        10.69714         0.85674
C         35.62465        12.11249         0.73012
C         36.80758         9.91698         0.42441
C         36.86476        12.80070         0.70216
C         35.61166        14.93557         0.60040
C         35.62284        16.38497         0.58869
C         36.85997        14.22247         0.68631
C         36.87478        17.07598         0.56854
C         35.64189        19.22351         0.73060
C         36.87990        18.52351         0.66470
C         38.10482         2.07646        -1.21500
C         38.10559         3.49570        -1.00324
C         39.36275         1.37634        -1.19966
C         39.34542         4.18742        -0.72486
C         38.14724         6.37188        -0.57852
C         38.12902         7.75205        -0.03563
C         39.38218         5.58248        -0.45060
C         39.31346         8.42127         0.12863
C         38.09123        10.64050         0.52815
C         38.10494        12.03061         0.67125
C         39.33452         9.93965         0.02800
C         39.36127        12.73351         0.74108
C         38.08901        14.94124         0.73961
C         38.09320        16.33749         0.61472
C         39.34790        14.19679         1.12696
C         39.38149        17.04582         0.46395
C         38.08108        19.23398         0.78932
C         39.36858        18.60345         0.55936
C         40.53249         2.02955        -0.92669
C         40.55510         3.44103        -0.65657
C         41.75351         4.10885        -0.30883
C         40.58007         6.24119        -0.09681
C         40.57814         7.69407         0.12472
C         41.76646         5.46572        -0.02902
C         41.73366         8.40662         0.39053
C         40.60342        10.58705         0.51325
C         40.58416        12.03408         0.71130
C         41.73354         9.81583         0.63205
C         41.80098        12.76744         0.79979
C         40.64172        14.92147         0.83385
C         40.65540        16.35353         0.75025
C         41.81909        14.16145         0.80238
C         41.81759        17.11521         0.86666
C         40.62267        19.24983         0.93843
C         41.78864        18.53298         0.98343
O         36.59930         9.43025        -1.01410
O         31.93128         9.33590        -0.62610
O         32.85393        15.74850        -0.64072
O         29.70635        10.02100         2.02115
O         30.37960        15.65607         2.36258
O         20.38826        11.22141        -1.67560
O         24.09296        12.54955        -2.33891
O         15.07747         4.87986         2.73936
O         16.35343         6.34848        -0.29042
O         12.73150         6.02661         2.71166
O         34.45432         8.86132         1.80924
O         26.90005         8.14938        -2.33097
O         19.02657        11.74038         1.89016
O         18.34223         8.17545         2.14002
O         28.23496         7.80107         1.18551
O         14.82226        13.06656        -1.49237
O         14.73588         9.70062         2.57698
O         29.76012        12.49146         2.20144
O         37.57054         6.34127        -1.95333
O         11.50301         2.74062        -0.70418
O         16.82873        16.41625        -2.39598
O         27.00660        10.57078        -2.15399
O         39.43334        17.87067        -0.72318
O         30.60366         6.46566         1.41990
O          7.84733        16.34537        -2.14334
O         17.16280        14.05035         1.42704
O          7.80970         8.23225         2.28557
O         14.58156        17.68020        -2.54087
O          2.78538        14.62938         1.27592
O         19.22986         5.11833        -1.53333
O          4.21689         3.48863        -1.29286
H          3.55369         2.98062        -1.80474
O         39.29973        10.17177        -1.42847
H         38.40801         9.86954        -1.73330
O          9.80181         4.54772        -1.22947
H         10.18704         3.74538        -1.65519
O          4.53319         4.15385         2.28857
H          5.21400         4.63760         2.80183
O          7.11133        13.23639         2.11959
H          6.97169        12.39156         2.59806
O         24.49055         5.72943        -3.06110
H         25.34773         5.40954        -3.41392
O         39.28184        14.17711         2.61748
H         40.07728        13.69371         2.92969
O         23.43673        15.19889        -2.81993
H         23.53637        14.28934        -3.18549
O          9.93028        13.31369         2.17438
H          9.88927        12.48667         2.70018
O         32.29530        17.27990         2.67135
H         31.70043        16.65534         3.15317
H          0.41895         1.41563         0.45293
H          0.35080         3.87203         0.28825
H          2.55908         0.19607         0.71419
H          0.35727         5.74751        -0.30396
H          0.33596         8.16625        -0.52967
H          0.33969        10.04623        -0.75417
H          0.27164        12.48095        -0.68330
H          0.23096        14.45570        -0.83723
H          0.26526        16.89739        -0.82493
H          1.46229        19.04649        -0.68765
H          5.02465         0.27984         0.99546
H          3.60343        20.27138        -0.90139
H          7.49721         0.31591         0.81675
H          6.06600        20.26270        -1.01514
H          9.89185         0.32458         0.92963
H          8.55345        20.21765        -1.15878
H         12.44278         0.33165         1.28509
H         10.98464        20.22448        -1.14868
H         14.91253         0.35334         1.09121
H         13.43876        20.26909        -0.86392
H         17.33597         0.35206         0.64860
H         15.98191        20.29541        -0.99051
H         19.71597         0.35773         0.00837
H         18.44610        20.34205        -0.90326
H         22.09385         0.30692        -0.54155
H         20.90683        20.38546        -0.69194
H         24.49783         0.25038        -1.06389
H         23.38075        20.40599        -0.43100
H         26.98145         0.22606        -1.38214
H         25.82349        20.39599        -0.06941
H         29.47567         0.25424        -1.59801
H         28.29046        20.38451         0.17960
H         31.94613         0.29909        -1.71017
H         30.71690        20.35620         0.34091
H         34.41287         0.31092        -1.70040
H         33.19851        20.34641         0.46180
H         36.90759         0.31405        -1.60480
H         35.65789        20.32269         0.76846
H         39.36387         0.29311        -1.39010
H         38.05279        20.29612         1.07528
H         41.48201         1.47511        -0.89703
H         42.68916         3.53326        -0.25675
H         42.72036         5.94155         0.23641
H         42.70144         7.88956         0.44570
H         42.69098        10.27262         0.92171
H         42.75991        12.23459         0.75554
H         42.79149        14.66620         0.71510
H         42.78365        16.61469         1.01799
H         40.60844        20.31640         1.20497
H         42.73076        19.04968         1.21607
