         600
 CSIRO Nanostructure Databank - Neutral Graphene Oxide Data Set
C         23.04811        27.45107         0.82052
C         23.02640        28.81206         0.64311
C         23.00867        31.68007         0.10563
C         22.98882        33.04838        -0.10357
C         22.98083        35.93526        -0.69859
C         22.97696        37.31860        -0.86162
C         22.97141        40.26155        -1.12521
C         22.96365        41.64698        -1.09647
C         22.96993        44.59198        -0.84093
C         22.97187        46.00108        -0.71788
C         25.50413        24.65204         0.98642
C         24.30962        25.33609         0.99775
C         25.50593        27.45915         0.66086
C         24.28244        26.74425         0.83090
C         25.48676        28.87481         0.52262
C         24.23464        29.56217         0.50439
C         25.47859        31.75771         0.56105
C         24.20676        30.97878         0.33449
C         25.43790        33.16395         0.03402
C         24.19612        33.81481        -0.15701
C         25.41897        36.00033        -0.16821
C         24.15679        35.22477        -0.42286
C         25.40843        37.40961        -0.69207
C         24.18350        38.08163        -0.85430
C         25.39776        40.24630        -0.89140
C         24.17148        39.52761        -0.98943
C         25.38732        41.67631        -0.87386
C         24.15744        42.38958        -0.93710
C         25.40179        44.51176        -0.57438
C         24.14837        43.83503        -0.77843
C         25.37736        45.94008        -0.07834
C         24.13103        46.70284        -0.43375
C         25.34531        48.79555        -0.05716
C         24.16982        48.12760        -0.28012
C         28.03346        23.20491         0.94417
C         27.99187        24.60903         0.75945
C         26.74183        25.32928         0.79211
C         27.97184        27.44451         0.39920
C         26.74265        26.73828         0.62321
C         27.95693        28.86086         0.22370
C         26.72526        29.59336         0.31464
C         27.93446        31.70270        -0.08685
C         26.72872        30.99521         0.19808
C         27.92501        33.11463        -0.29241
C         26.67410        33.85164        -0.24068
C         27.84665        35.91469        -1.06830
C         26.65700        35.21732        -0.48740
C         27.87620        37.40107        -0.79382
C         26.65078        38.11171        -0.77074
C         27.87826        40.24793        -0.77277
C         26.64002        39.54254        -0.81151
C         27.86275        41.69586        -0.73536
C         26.62823        42.38764        -0.77666
C         27.88961        44.54601        -0.67984
C         26.59834        43.81629        -0.64576
C         27.90244        46.03586        -0.53212
C         26.63237        46.74433        -0.29963
C         27.89594        48.83783        -0.01110
C         26.62790        48.11233        -0.11962
C         27.93780        50.23385         0.13993
C         30.45679        23.18588         0.69997
C         29.22663        22.51693         0.91810
C         30.45093        24.59243         0.50482
C         29.21254        25.30862         0.54014
C         30.43171        27.42621         0.13557
C         29.20292        26.72891         0.35542
C         30.41685        28.83628        -0.03734
C         29.18059        29.56153         0.00663
C         30.39911        31.68200        -0.37877
C         29.16891        30.97663        -0.16629
C         30.39674        33.08593        -0.55855
C         29.14992        33.82487        -0.54698
C         30.38870        35.93048        -1.22864
C         29.14369        35.20188        -0.80841
C         30.36749        37.39439        -0.86732
C         29.11067        38.09830        -0.80902
C         30.37622        40.27990        -0.92313
C         29.09033        39.52077        -0.75613
C         30.30643        41.63337        -0.25781
C         29.08412        42.41358        -0.49094
C         30.36165        44.52915        -0.21274
C         29.13417        43.80449        -0.40614
C         30.36008        45.97468        -0.13890
C         29.16113        46.70808        -0.18029
C         30.37028        48.81242         0.20070
C         29.13451        48.11880         0.01547
C         30.36948        50.22529         0.38458
C         29.13962        50.90909         0.33970
C         32.93270        20.36890         0.86865
C         31.74213        21.06283         0.88636
C         32.92386        23.15510         0.43662
C         31.70556        22.46238         0.67590
C         32.91724        24.57494         0.22842
C         31.68431        25.29045         0.27298
C         32.89829        27.39784        -0.13351
C         31.67298        26.70454         0.09020
C         32.87998        28.82018        -0.28355
C         31.64766        29.53773        -0.24116
C         32.86693        31.64920        -0.58020
C         31.63695        30.95372        -0.39925
C         32.86478        33.08265        -0.67174
C         31.63698        33.79703        -0.69813
C         32.84742        35.93767        -0.66570
C         31.64521        35.21889        -0.81720
C         32.84112        37.37323        -0.61415
C         31.59473        38.09057        -0.68290
C         32.83314        40.22435        -0.40304
C         31.61898        39.51108        -0.57051
C         32.86216        41.65281        -0.28260
C         31.60323        42.37609        -0.06058
C         32.83667        44.53336        -0.11383
C         31.59117        43.84221        -0.11355
C         32.84053        45.96445        -0.03962
C         31.60573        46.67402         0.00695
C         32.84890        48.79171         0.21545
C         31.60450        48.08888         0.15976
C         32.84824        50.21616         0.47187
C         31.62969        50.91296         0.60686
C         32.84775        52.93372         1.23217
C         31.66042        52.28510         0.98444
C         35.44247        18.90685         0.90506
C         35.41007        20.29921         0.61924
C         34.16221        21.02919         0.63118
C         35.38507        23.12168         0.13515
C         34.15610        22.43213         0.40589
C         35.38128        24.53059        -0.08776
C         34.14352        25.26366        -0.02340
C         35.36572        27.37183        -0.45928
C         34.13519        26.67587        -0.20895
C         35.34811        28.79218        -0.59554
C         34.10304        29.52599        -0.50293
C         35.33078        31.65748        -1.09373
C         34.08692        30.92597        -0.64926
C         35.33687        33.10746        -0.70179
C         34.10765        33.80250        -0.65941
C         35.30773        35.93322        -0.38640
C         34.09079        35.22780        -0.54758
C         35.29478        37.36891        -0.32791
C         34.06097        38.08243        -0.44847
C         35.30064        40.22552        -0.26598
C         34.07401        39.50989        -0.36304
C         35.31295        41.65884        -0.26354
C         34.07171        42.37236        -0.24918
C         35.30755        44.52887        -0.15392
C         34.06998        43.81596        -0.16254
C         35.32220        45.95633        -0.10544
C         34.07575        46.67821        -0.03598
C         35.32048        48.87136        -0.19309
C         34.05920        48.09095         0.05620
C         35.32763        50.22571         0.46944
C         34.09454        50.90313         0.67481
C         35.34684        52.95106         1.27881
C         34.09678        52.26968         1.08009
C         35.39399        54.31973         1.67222
C         37.85763        18.83860         0.62320
C         36.62220        18.20010         0.90753
C         37.85311        20.23252         0.33388
C         36.62100        20.97197         0.32894
C         37.80460        23.07092        -0.28549
C         36.60788        22.39297         0.06873
C         37.82759        24.47229        -0.48098
C         36.60509        25.20924        -0.36047
C         37.82721        27.30453        -0.78204
C         36.60031        26.63587        -0.53106
C         37.79261        28.75026        -1.01348
C         36.56054        29.50745        -0.78700
C         37.82031        31.63091        -0.60616
C         36.60907        30.92238        -0.79066
C         37.80476        33.07907        -0.42883
C         36.55645        33.79128        -0.51547
C         37.76069        35.88750        -0.07283
C         36.54158        35.20731        -0.31819
C         37.71234        37.32932         0.19086
C         36.49496        38.08726        -0.11814
C         37.78471        40.21382        -0.18850
C         36.52694        39.50200        -0.15056
C         37.78552        41.66344        -0.27981
C         36.54333        42.37632        -0.23577
C         37.78391        44.51772        -0.15724
C         36.54729        43.80648        -0.19049
C         37.80392        45.94759        -0.09379
C         36.56513        46.66427        -0.07570
C         37.80229        48.78328         0.10701
C         36.59194        48.08768         0.01502
C         37.79709        50.20394         0.40480
C         36.54955        50.88693         0.66074
C         37.82012        52.95789         1.17309
C         36.57204        52.26611         1.05493
C         37.83197        54.32577         1.57154
C         36.58960        54.97658         1.82337
C         40.32445        16.01454         0.86857
C         39.13551        16.70204         0.83433
C         40.32174        18.81028         0.41611
C         39.10104        18.11198         0.62066
C         40.31291        20.21220         0.10659
C         39.08015        20.88593         0.02124
C         40.34798        23.00698        -0.64602
C         39.02595        22.26877        -0.47270
C         40.29927        24.47520        -0.68554
C         39.09010        25.17003        -0.70829
C         40.29847        27.36197        -0.80006
C         39.07440        26.62222        -0.81686
C         40.33465        28.76434        -0.66084
C         39.12177        29.53628        -0.92344
C         40.27383        31.58817        -0.18835
C         39.06600        30.94557        -0.53516
C         40.24156        33.02665         0.25602
C         38.98797        33.76804        -0.14826
C         40.24954        35.91634         0.00557
C         38.98923        35.19294        -0.02545
C         40.27268        37.31516        -0.01215
C         39.03820        38.08837         0.21016
C         40.24867        40.15871        -0.48360
C         38.98829        39.50692        -0.14899
C         40.26175        41.68160        -0.53348
C         38.99490        42.38601        -0.30826
C         40.26483        44.51454        -0.20224
C         39.01791        43.80672        -0.20931
C         40.28295        45.93826        -0.16336
C         39.04527        46.64740        -0.09743
C         40.27058        48.79332        -0.14495
C         39.06337        48.08366        -0.02457
C         40.20990        50.27061        -0.08307
C         38.99975        50.90476         0.48152
C         40.28979        52.98047         0.94550
C         39.04458        52.28850         0.84644
C         40.29940        54.31648         1.46439
C         39.08293        55.00415         1.74208
C         40.33366        56.97806         2.45349
C         39.13866        56.35450         2.20956
C         42.79872        16.00504         0.81116
C         41.56175        16.70170         0.72461
C         42.80560        18.80788         0.40349
C         41.56264        18.10485         0.50210
C         42.80726        20.22444         0.19223
C         41.57146        20.92462        -0.02594
C         42.81911        23.04800        -0.20469
C         41.59522        22.31022        -0.27906
C         42.83382        24.45463        -0.40897
C         41.59802        25.14742        -0.82599
C         42.81425        27.37516        -0.43350
C         41.59640        26.67074        -0.86651
C         42.75961        28.74754        -0.20045
C         41.53422        29.46795        -0.35399
C         42.75662        31.62520        -0.07841
C         41.49928        30.89123        -0.17498
C         42.73945        33.06405        -0.14980
C         41.51152        33.77453        -0.07684
C         42.72893        35.89573        -0.23089
C         41.49455        35.17882        -0.10960
C         42.72852        37.31823        -0.23044
C         41.50322        38.03902        -0.15802
C         42.73028        40.17931        -0.18363
C         41.51559        39.45233        -0.23999
C         42.73462        41.64321        -0.13818
C         41.53065        42.37150        -0.26077
C         42.73319        44.49958        -0.09912
C         41.50391        43.78816        -0.17677
C         42.73656        45.92914        -0.19531
C         41.53480        46.65402        -0.21531
C         42.74752        48.83957        -0.31707
C         41.54417        48.11723        -0.25763
C         42.74862        50.34214        -0.61712
C         41.47910        51.07707        -0.17504
C         42.75850        52.94654         0.92085
C         41.53435        52.35621         0.57673
C         42.77056        54.25257         1.54423
C         41.54579        54.95905         1.73338
C         42.79726        56.88020         2.60893
C         41.56726        56.28539         2.25746
C         43.99116        16.68286         0.72498
C         45.27753        18.81524         0.51606
C         44.02936        18.09608         0.54084
C         45.27802        20.22917         0.37056
C         44.03971        20.93403         0.19210
C         45.27870        23.07305         0.06415
C         44.04814        22.35224         0.03274
C         45.27359        24.49222        -0.07181
C         44.03737        25.19486        -0.28432
C         45.26308        27.34449        -0.13753
C         44.03589        26.63087        -0.28759
C         45.26439        28.76937        -0.06028
C         43.98113        29.47270         0.29765
C         45.21815        31.64719        -0.14664
C         43.97625        30.94501        -0.03438
C         45.21452        33.06287        -0.28046
C         43.97088        33.77305        -0.26199
C         45.19225        35.92341        -0.46117
C         43.96537        35.19684        -0.31991
C         45.19142        37.32817        -0.42201
C         43.95439        38.03799        -0.27698
C         45.22028        40.12677         0.07484
C         43.93825        39.44784        -0.15667
C         45.22356        41.62204         0.25218
C         43.94906        42.36390         0.06919
C         45.18582        44.52642         0.32948
C         43.94591        43.76876         0.04224
C         45.27569        45.94816        -0.01632
C         44.02743        46.60764        -0.42920
C         45.33071        48.80864        -0.31187
C         44.03434        48.14127        -0.54532
C         45.34115        50.28417        -0.20106
C         44.04954        51.06176        -0.19546
C         45.22112        52.79565         1.14729
C         44.03084        52.29650         0.63758
C         45.26574        54.08279         1.95071
C         43.97975        54.86492         1.93567
C         43.97762        56.16285         2.47591
C         47.71124        18.83803         0.69636
C         46.52395        18.14540         0.66123
C         47.74596        20.25550         0.58567
C         46.51331        20.95158         0.40225
C         47.74526        23.09097         0.30212
C         46.51428        22.37303         0.25706
C         47.73753        24.50939         0.14395
C         46.50273        25.21027        -0.02057
C         47.73196        27.35833        -0.08317
C         46.50231        26.63593        -0.09384
C         47.71513        28.78507        -0.17788
C         46.46491        29.48798        -0.12917
C         47.67958        31.63947        -0.34155
C         46.46442        30.93604        -0.17769
C         47.67825        33.06930        -0.45303
C         46.44688        33.77658        -0.41492
C         47.64856        35.88902        -0.77877
C         46.44762        35.20115        -0.56115
C         47.60841        37.33839        -1.19323
C         46.42096        38.07790        -0.60505
C         47.62136        40.25066        -0.76225
C         46.44215        39.43222        -0.38941
C         47.68347        41.67574        -0.32913
C         46.49961        42.33258         0.05893
C         47.74781        44.52052         0.21830
C         46.51182        43.75743         0.37560
C         47.75027        45.91066         0.18623
C         46.49081        46.63186         0.02312
C         47.79149        48.75472        -0.00751
C         46.51756        48.08149        -0.12360
C         47.80316        50.24966        -0.21066
C         46.55914        50.90186         0.35810
C         47.75653        52.81332         1.49619
C         46.50250        52.13630         0.94183
C         47.63591        54.30968         1.30420
C         46.45930        54.90570         1.51612
C         50.22488        20.32119         0.89825
C         48.98112        20.98427         0.66511
C         50.20972        23.13814         0.62678
C         48.98105        22.39971         0.52590
C         50.17673        24.53924         0.44044
C         48.96632        25.22908         0.17782
C         50.19501        27.38351        -0.07848
C         48.97063        26.65935         0.01319
C         50.16913        28.79577        -0.26700
C         48.93174        29.50399        -0.28137
C         50.14366        31.63368        -0.60120
C         48.93280        30.93414        -0.40942
C         50.14681        33.07512        -0.69681
C         48.90539        33.78182        -0.60875
C         50.13304        35.91332        -0.86176
C         48.89565        35.20040        -0.76016
C         50.12320        37.36385        -0.91738
C         48.92360        38.04880        -0.97980
C         50.19290        40.25283        -1.04169
C         48.89475        39.51801        -1.11323
C         50.19327        41.69898        -0.62589
C         48.92269        42.33603        -0.22968
C         50.30374        44.47537         0.22598
C         48.97573        43.72209         0.26191
C         50.24074        45.93373         0.07220
C         49.01499        46.62231         0.11943
C         50.27906        48.76272         0.07548
C         49.00488        48.06197         0.04535
C         50.32874        50.17265         0.25028
C         49.08511        50.95085         0.19976
C         50.31471        52.71250         1.55103
C         49.05751        52.28090         0.92061
C         51.40279        21.01484         1.00797
C         52.68174        23.13426         1.00133
C         51.45337        22.43723         0.88864
C         52.67063        24.60613         0.91974
C         51.40534        25.33420         0.60827
C         52.66114        27.36745        -0.19394
C         51.45666        26.71406         0.06329
C         52.60855        28.76758        -0.55247
C         51.38959        29.49960        -0.44629
C         52.61145        31.61316        -0.83483
C         51.39527        30.91821        -0.65562
C         52.59642        33.04583        -1.27709
C         51.34969        33.78810        -0.87853
C         52.62485        35.91695        -0.99035
C         51.36084        35.20774        -0.90582
C         52.63583        37.32809        -0.95641
C         51.39973        38.07288        -0.90560
C         52.66981        40.19267        -0.85640
C         51.43305        39.46655        -0.87898
C         52.69964        41.58994        -0.65860
C         51.49171        42.25829        -0.05111
C         52.68696        44.45883        -0.42610
C         51.52001        43.76053        -0.15972
C         52.69396        45.90263        -0.31743
C         51.48353        46.61655        -0.10581
C         52.75175        48.73074         0.06299
C         51.49852        48.04374         0.00286
C         52.77877        50.11784         0.38384
C         51.53929        50.82321         0.56731
C         51.48963        52.10099         1.24403
C         55.09516        23.28793         1.50519
C         53.94731        22.54196         1.27712
C         55.15413        24.70302         1.29836
C         53.96618        25.26809         0.58953
C         55.20557        27.41827         0.35181
C         53.96965        26.65044         0.03428
C         55.51207        28.55831        -0.33109
C         53.73557        29.50438        -0.97788
C         55.13134        31.58996        -0.81624
C         53.85087        30.91306        -0.88792
C         55.10844        33.04653        -0.90776
C         53.88990        33.76750        -1.01197
C         55.10450        35.90168        -1.09123
C         53.87352        35.18860        -1.03028
C         55.10926        37.33934        -1.15555
C         53.87579        38.04772        -1.04631
C         55.10952        40.19146        -1.17180
C         53.89090        39.47044        -1.03304
C         55.10713        41.61918        -1.16124
C         53.89656        42.31927        -0.85007
C         55.11899        44.46588        -0.88872
C         53.91335        43.74987        -0.72856
C         55.14188        45.88569        -0.65559
C         53.93530        46.59736        -0.38623
C         55.21752        48.69327        -0.06093
C         53.97244        48.01081        -0.13401
C         55.21342        50.08011         0.25500
C         54.03990        50.76539         0.48509
C         57.36105        25.06984         2.39680
C         56.20254        25.53514         1.68880
C         57.34753        27.80744         1.56232
C         56.03828        27.04192         1.54540
C         57.44883        29.10530         0.98229
C         56.41852        29.57746         0.10435
C         57.53010        31.71703        -0.13052
C         56.34280        30.94041        -0.33735
C         57.63302        33.02632        -0.87476
C         56.32865        33.78027        -0.89167
C         57.58954        35.88989        -1.18237
C         56.34171        35.17943        -1.06063
C         57.57508        37.30796        -1.68981
C         56.31981        38.05701        -1.31993
C         57.55410        40.20242        -1.54404
C         56.33117        39.46979        -1.34024
C         57.51647        41.61029        -1.65575
C         56.31408        42.33984        -1.41123
C         57.52995        44.50870        -1.38132
C         56.32725        43.77509        -1.26741
C         57.58815        45.87780        -0.97791
C         56.38614        46.58244        -0.64886
C         57.70847        48.60514        -0.25354
C         56.44347        47.97106        -0.31540
C         58.38542        25.91074         2.74433
C         59.57748        28.09306         2.50493
C         58.42788        27.28550         2.29268
C         59.65110        29.37711         1.99461
C         58.60286        29.90743         1.20058
C         59.84590        31.98842         0.63946
C         58.65645        31.20415         0.55579
C         59.90884        33.28563         0.14620
C         58.80985        33.88191        -0.48559
C         60.03170        36.01963        -0.92503
C         58.80757        35.25737        -0.88772
C         60.04033        37.36746        -1.17517
C         58.83724        38.09403        -1.41579
C         60.02969        40.26001        -1.69746
C         58.81305        39.49054        -1.55751
C         60.00833        41.58506        -1.98254
C         58.74337        42.32499        -2.04518
C         60.01864        44.60098        -1.77274
C         58.74824        43.87931        -1.91190
C         60.05071        45.86439        -1.28023
C         58.83823        46.55860        -0.92412
C         58.87544        47.91408        -0.53843
O         38.34601        37.73557         1.45498
O         40.54041        51.05997        -1.29488
O         58.58504        43.20180        -3.20321
O         45.27702        40.71865         1.43393
O         48.00242        40.01274        -2.17666
O         41.76461        25.87947        -2.09250
O         44.06481        47.26923        -1.73480
O         40.25701        40.88120        -1.76899
O         49.17659        52.23194        -0.53319
O         38.50508        29.20838        -2.20810
O         27.97601        45.40524        -1.88799
O         49.74859        43.95671         1.51510
O         54.81009        28.80780        -1.52337
O         54.17715        25.47599        -0.85362
O         51.93320        25.26701         2.00582
O         50.30279        41.32660        -2.03971
O         39.64648        22.40916        -1.79681
O         44.93179        51.11395        -1.36656
O         45.78267        44.14122         1.60578
O         30.84367        41.76217         1.08007
O         42.70262        50.33731        -2.06087
H         43.63594        50.31850        -2.38266
O         35.29277        49.16046        -1.64561
H         36.11655        49.64805        -1.86255
O         35.24691        31.67283        -2.57513
H         35.44453        30.76364        -2.88781
O         45.48051        53.72238         3.36721
H         44.67828        53.25036         3.67578
O         57.52509        37.18638        -3.16839
H         57.49325        38.09672        -3.53365
O         43.90617        29.40391         1.77521
H         44.68136        29.88999         2.12892
O         30.39102        35.90625        -2.75878
H         30.74938        35.03229        -3.02948
O         51.51317        41.91211         1.36869
H         50.89092        42.53929         1.81919
O         25.56089        31.91303         2.04644
H         24.83712        32.52173         2.30928
O         55.29586        27.47439         2.74443
H         55.82248        27.20307         3.52617
O         47.68563        50.42301        -1.65205
H         47.92013        51.36045        -1.84050
O         25.45209        36.17313         1.32242
H         24.64571        36.67824         1.56463
O         30.49220        40.59010        -2.35978
H         30.47936        39.73931        -2.84836
O         47.39826        37.33576        -2.64802
H         47.49101        38.27657        -2.93737
O         40.19225        32.97482         1.73052
H         40.14373        33.89995         2.05417
O         27.66886        35.83332        -2.54328
H         28.57409        35.97288        -2.93239
O         47.84648        52.51092         2.90991
H         47.05798        52.92542         3.34780
O         52.51634        32.97158        -2.75969
H         51.67782        32.51425        -2.98468
O         25.31796        45.78193         1.40550
H         25.12948        46.67069         1.77776
O         57.89053        32.64792        -2.28766
H         58.74032        32.15817        -2.30463
H         22.11056        26.89213         0.95244
H         22.05882        29.33076         0.64491
H         22.05537        31.13655         0.05297
H         22.02280        33.54125        -0.27190
H         22.02349        35.40281        -0.78832
H         22.01608        37.81750        -1.04198
H         22.01289        39.73637        -1.23256
H         21.99906        42.16590        -1.17720
H         22.00864        44.09795        -1.03622
H         22.02772        46.54825        -0.86063
H         25.48603        23.56284         1.11922
H         23.36254        24.79478         1.13485
H         25.31898        49.88393         0.08531
H         23.22600        48.68955        -0.34898
H         27.10915        22.63926         1.11599
H         27.01101        50.82183         0.10591
H         29.20395        21.43041         1.06888
H         29.10956        52.00119         0.45029
H         32.90523        19.28516         1.03659
H         30.81659        20.50350         1.07104
H         32.81618        53.98726         1.53888
H         30.72104        52.83960         1.10988
H         34.51522        18.36968         1.14031
H         34.46405        54.87000         1.86507
H         36.59242        17.12868         1.14330
H         36.57230        56.02950         2.13223
H         40.33231        14.92673         1.02798
H         38.19933        16.14421         0.96609
H         40.35626        58.01113         2.82879
H         38.20889        56.90780         2.39386
H         42.78963        14.91632         0.96434
H         42.80869        57.89739         3.02505
H         44.92631        16.11466         0.81101
H         44.92360        56.61159         2.80909
H         48.64306        18.27054         0.81562
H         46.55497        17.05232         0.75495
H         48.51852        54.88664         0.98991
H         46.34126        55.98956         1.37016
H         50.25177        19.22906         1.00505
H         50.29211        53.56674         2.24265
H         52.32978        20.45696         1.19700
H         52.42243        52.49809         1.66948
H         55.99410        22.76073         1.85651
H         54.01198        21.45237         1.40967
H         56.16137        50.63046         0.31916
H         54.08517        51.83818         0.71695
H         57.43095        24.00469         2.66171
H         57.78089        49.66539         0.02171
H         59.25062        25.51926         3.29896
H         60.41549        27.68660         3.08947
H         60.54912        29.97516         2.20009
H         60.72738        31.58233         1.15167
H         60.82313        33.86785         0.32773
H         60.98596        35.51146        -0.73251
H         60.99974        37.90132        -1.12903
H         60.99739        39.74148        -1.67185
H         60.94701        42.11188        -2.20054
H         60.94281        44.12318        -2.12478
H         61.00541        46.40447        -1.19935
H         59.84496        48.42994        -0.48624
