         424
 CSIRO Nanostructure Databank - Neutral Graphene Oxide Data Set
C          1.39485         3.81422        -2.36317
C          0.17268         4.41990        -2.16075
C          1.25556         6.46314        -1.35156
C          0.10046         5.74218        -1.67888
C          1.18821         7.84113        -0.89995
C          0.02680         8.59716        -0.97192
C          1.14957        10.64277        -0.18670
C         -0.01454         9.94782        -0.57679
C          1.13544        12.06693         0.10315
C         -0.02149        12.84531        -0.03241
C          1.06567        14.88130         0.77673
C         -0.03658        14.22693         0.23932
C          1.08778        16.30419         1.04034
C         -0.12981        17.04306         0.97784
C          1.07091        19.15309         1.09266
C         -0.14335        18.41534         1.02201
C          1.09404        20.58260         0.98050
C         -0.12190        21.35171         0.94224
C          1.09875        23.47079         0.88565
C         -0.11096        22.72652         0.96734
C          1.13053        24.87721         0.90970
C         -0.07058        25.64914         1.06100
C          1.14343        27.75905         0.79820
C         -0.06592        27.01325         0.99267
C          1.10590        29.16034         0.63441
C         -0.09302        29.93775         0.58873
C          1.13542        32.02504         0.12115
C         -0.07677        31.30323         0.42448
C          1.15630        33.46602        -0.11978
C         -0.00189        34.25615         0.01408
C          1.27069        36.29594        -0.34974
C          0.05217        35.64429        -0.07757
C          1.38143        37.75526        -0.32591
C          3.85080         3.92485        -2.34992
C          2.60497         4.51267        -2.06555
C          3.74772         6.52744        -1.18596
C          2.53945         5.83410        -1.50951
C          3.70315         7.84212        -0.63858
C          2.38712         8.43094        -0.20449
C          3.59472        10.62587         0.11046
C          2.38471         9.93911        -0.12678
C          3.57060        12.02367         0.49389
C          2.35014        12.69729         0.54067
C          3.55841        14.82118         1.36961
C          2.27112        14.08331         1.05389
C          3.56806        16.30406         1.37617
C          2.30080        17.00256         1.27443
C          3.51103        19.17174         1.36030
C          2.29585        18.43992         1.25432
C          3.53297        20.55953         1.18208
C          2.33016        21.26175         0.95136
C          3.62998        23.43210         0.81403
C          2.34642        22.70535         0.51445
C          3.61677        24.86491         0.75256
C          2.38169        25.58678         0.78275
C          3.63157        27.68706         0.62288
C          2.39057        27.01435         0.75130
C          3.67152        29.15402         0.56858
C          2.36387        29.92003         0.55185
C          3.53934        31.91371        -0.49115
C          2.32047        31.30673         0.05936
C          3.60916        33.36959        -0.60110
C          2.39778        34.11865        -0.42073
C          3.67077        36.24620        -1.02459
C          2.42568        35.52549        -0.57540
C          3.85264        37.52925        -0.16604
C          2.58340        38.35418        -0.22201
C          6.30527         4.05676        -2.46688
C          5.05817         4.61916        -2.11422
C          6.22683         6.59405        -1.22142
C          5.01701         5.92201        -1.49881
C          6.19289         7.82098        -0.34673
C          4.88448         8.57605        -0.40417
C          6.08750        10.76790        -0.11673
C          4.83845         9.93235        -0.03237
C          6.01674        12.00210         0.73566
C          4.81728        12.68888         0.87067
C          6.01862        14.82359         1.26736
C          4.83443        14.10132         1.20047
C          6.04110        16.27663         1.39532
C          4.76901        16.97904         1.50575
C          6.04025        19.13173         1.38714
C          4.76212        18.46909         1.82158
C          5.99288        20.44871         0.67075
C          4.85421        21.27894         1.34652
C          6.07536        23.43204         0.92158
C          4.82246        22.73771         0.95128
C          6.08994        24.85424         0.80596
C          4.85557        25.56598         0.73200
C          6.11139        27.68586         0.45770
C          4.86183        26.98761         0.59962
C          6.11085        29.09432         0.13876
C          4.90596        29.78153         0.07842
C          6.11668        31.87176        -0.63689
C          4.85672        31.12992        -0.48189
C          6.07513        33.22808        -0.94367
C          4.85225        33.99629        -0.87954
C          6.17936        36.07783        -1.05019
C          4.91795        35.41574        -1.00772
C          6.22439        37.56064        -0.97547
C          5.06653        38.26105        -0.62235
C          8.75336         4.24291        -2.71070
C          7.50152         4.75873        -2.25553
C          8.69906         6.76075        -1.40388
C          7.46788         6.03965        -1.60118
C          8.68290         8.06553        -0.76945
C          7.43144         8.67910        -0.42826
C          8.59894        10.70387         0.32098
C          7.38127         9.99931        -0.01754
C          8.55374        11.95069         0.91604
C          7.25899        12.58452         1.21220
C          8.57967        14.79735         1.31361
C          7.28028        14.10247         1.44275
C          8.53116        16.26601         0.95029
C          7.25049        16.94703         1.38485
C          8.56516        19.11901         1.43210
C          7.29098        18.40574         1.76323
C          8.55605        20.53913         1.23973
C          7.37568        21.23137         0.55052
C          8.51162        23.42181         0.90948
C          7.30490        22.71348         0.91744
C          8.54864        24.84223         0.84720
C          7.32875        25.56360         0.74828
C          8.57774        27.68394         0.34143
C          7.33342        26.98314         0.52670
C          8.58896        29.05992        -0.00284
C          7.35428        29.78108        -0.15053
C          8.60149        31.84326        -0.75526
C          7.35252        31.14574        -0.50222
C          8.59663        33.16511        -1.15700
C          7.31539        33.89636        -1.48210
C          8.65653        36.09210        -0.97832
C          7.36155        35.36387        -1.15492
C          8.60820        37.43327        -1.75842
C          7.41414        38.21354        -1.31006
C         11.18313         4.54083        -3.27206
C          9.91662         4.98166        -2.57671
C         11.14424         7.09606        -1.96967
C          9.89662         6.24147        -1.91512
C         11.14644         8.19500        -0.94116
C          9.89033         8.75084        -0.52358
C         11.06093        10.63914         0.55126
C          9.87179        10.02305         0.15097
C         11.06593        11.97440         1.05184
C          9.77761        12.60806         1.50937
C         11.04643        14.83759         1.32337
C          9.76773        14.12157         1.34427
C         11.02501        16.28446         1.38800
C          9.80429        16.97720         1.34770
C         11.00326        19.10312         1.82108
C          9.76107        18.39267         1.51414
C         10.97437        20.62864         1.75541
C          9.73588        21.25580         1.29688
C         10.95035        23.43227         1.42824
C          9.81270        22.66261         0.75195
C         11.02312        24.85507         0.91851
C          9.81139        25.55035         0.75762
C         11.04134        27.65377         0.35465
C          9.81678        26.96746         0.48054
C         11.07213        29.05602         0.01858
C          9.83278        29.75271        -0.20252
C         11.09584        31.79306        -0.76064
C          9.85074        31.11475        -0.58038
C         11.12454        33.15194        -1.15587
C          9.86499        33.83541        -1.61571
C         11.08834        36.00035        -1.43691
C          9.90071        35.32004        -1.34083
C         11.10304        37.47246        -1.47064
C          9.91077        38.17037        -1.58751
C         13.63233         4.31720        -2.70715
C         12.44145         5.03165        -2.60229
C         13.61422         6.86034        -1.47485
C         12.41765         6.28808        -1.95963
C         13.60277         8.13370        -0.80526
C         12.34012         8.72670        -0.48399
C         13.59406        10.65080         0.51999
C         12.33089         9.82812         0.53677
C         13.53318        11.93969         1.22215
C         12.25031        12.69131         1.22218
C         13.58403        14.83255         1.21062
C         12.24886        14.12164         1.34206
C         13.53213        16.30602         1.57771
C         12.28534        17.00573         1.54800
C         13.50694        19.14990         1.76133
C         12.28716        18.40259         1.70516
C         13.50828        20.57262         1.68141
C         12.26921        21.32840         1.57242
C         13.51351        23.47777         1.58591
C         12.25875        22.68210         1.37905
C         13.50571        24.81518         0.90120
C         12.27233        25.49742         0.72143
C         13.48675        27.56687         0.19545
C         12.28477        26.91742         0.42266
C         13.56031        29.05582         0.35434
C         12.29643        29.74622        -0.09047
C         13.56417        31.81764        -0.59677
C         12.33267        31.11542        -0.46917
C         13.57553        33.16222        -1.00783
C         12.33860        33.85149        -1.24809
C         13.56100        35.97721        -1.49736
C         12.35107        35.27947        -1.46358
C         13.57651        37.43135        -1.52203
C         12.35880        38.13976        -1.48190
C         16.08706         4.19010        -2.40328
C         14.85709         4.87018        -2.24223
C         16.06878         6.79651        -1.26006
C         14.84910         6.17073        -1.64281
C         16.05863         8.10950        -0.68175
C         14.82194         8.74817        -0.41497
C         16.06203        10.75078         0.49602
C         14.80313        10.06368         0.21308
C         16.06582        12.00025         1.09717
C         14.81517        12.62979         1.57501
C         16.02442        14.89459         1.71397
C         14.73720        14.11944         1.95573
C         15.98739        16.25410         1.87061
C         14.72226        16.98987         1.85013
C         15.96729        19.15509         1.89998
C         14.74790        18.43380         1.87345
C         15.98351        20.55097         1.68140
C         14.74672        21.27357         1.58001
C         15.97826        23.35344         1.11315
C         14.77038        22.68282         1.37333
C         15.97619        24.74363         0.71580
C         14.73229        25.41308         0.55884
C         16.01894        27.50555        -0.22392
C         14.70710        26.77834         0.00619
C         16.01038        28.99304        -0.24229
C         14.84223        29.69589        -0.12049
C         16.08308        31.79419        -0.72578
C         14.85287        31.20166        -0.09182
C         16.04029        33.11902        -1.18473
C         14.81998        33.85051        -1.24156
C         16.01895        35.97697        -1.64918
C         14.81343        35.25994        -1.50056
C         16.04074        37.41360        -1.62961
C         14.80811        38.11349        -1.55632
C         18.55402         4.12976        -2.24513
C         17.29919         4.79795        -2.04144
C         18.53415         6.77078        -1.19151
C         17.29902         6.11900        -1.48664
C         18.54163         8.10718        -0.68073
C         17.30112         8.77767        -0.39041
C         18.55866        10.76688         0.35082
C         17.30905        10.08041         0.15868
C         18.58011        12.09404         0.85898
C         17.34053        12.70607         1.47789
C         18.55791        14.88937         1.48235
C         17.25061        14.20942         1.15407
C         18.55206        16.27508         1.98083
C         17.24824        16.98113         2.19386
C         18.51250        19.17604         1.90648
C         17.23863        18.49786         2.38220
C         18.48557        20.56007         1.66986
C         17.22669        21.26679         1.56323
C         18.45141        23.35460         1.03315
C         17.21785        22.63866         1.23300
C         18.44315        24.69895         0.61254
C         17.22196        25.41421         0.44093
C         18.49522        27.51514        -0.03526
C         17.26504        26.79697         0.08387
C         18.50272        28.93044        -0.32890
C         17.28762        29.66686        -0.42347
C         18.55319        31.72707        -0.98294
C         17.29927        31.05870        -0.71525
C         18.56681        33.09285        -1.37039
C         17.28056        33.74101        -1.66385
C         18.55307        35.97438        -1.76267
C         17.27554        35.26257        -1.87543
C         18.52371        37.39890        -1.71838
C         17.27688        38.08970        -1.69327
C         19.73707         4.75373        -1.95464
C         20.98243         6.76023        -1.18932
C         19.75931         6.09154        -1.44218
C         20.99055         8.06465        -0.73776
C         19.78194         8.76862        -0.48165
C         20.98070        10.89470         0.03582
C         19.78594        10.14120        -0.02683
C         20.97179        12.21490         0.44528
C         19.77519        12.82795         0.88413
C         20.98639        14.93938         1.58068
C         19.75911        14.22996         1.33209
C         21.00502        16.29923         1.80450
C         19.80519        17.05007         1.91312
C         20.97129        19.22944         1.80375
C         19.75833        18.46999         1.90901
C         20.95191        20.58686         1.65719
C         19.71543        21.29809         1.53992
C         20.89492        23.49623         1.38264
C         19.69556        22.68533         1.29015
C         20.91104        24.77265         0.94507
C         19.74669        25.31016         0.15235
C         20.92798        27.49894        -0.15909
C         19.72810        26.81576         0.04478
C         20.94643        28.87049        -0.41345
C         19.75454        29.60586        -0.51374
C         20.98119        31.72795        -1.06774
C         19.77619        31.02001        -0.84594
C         20.98374        33.07831        -1.37526
C         19.77799        33.80333        -1.53065
C         20.97449        36.00904        -1.70904
C         19.77553        35.26273        -1.71360
C         20.95522        37.40802        -1.72590
C         19.75354        38.10530        -1.70899
O          4.01260        31.19366        -1.70230
O          3.17708        29.81873         1.80551
O          2.74069        14.23917         2.44726
O         10.88749        19.93272         3.03900
O         17.20444        34.31546        -3.00440
O         14.12140        11.81171         2.59943
O          7.72560        21.27154        -0.82571
O          7.20809        13.15754         2.57076
O         17.90435        16.34233         3.35044
O         15.28093        26.91138        -1.35580
O         17.06245        14.32909        -0.29733
H         16.09727        14.42423        -0.47631
O          2.30846        22.64930        -0.96678
H          1.50005        22.15194        -1.21536
O          7.16211        33.81793        -2.96884
H          6.94251        32.88530        -3.18494
O          9.74210        12.32928         2.94970
H          8.84933        12.61956         3.26452
O         13.59836        29.25238         1.84305
H         12.73712        28.93839         2.19679
O          5.16707        21.29995         2.77346
H          4.87457        20.43925         3.17067
O          3.45309        36.72553        -2.38398
H          3.40241        35.94518        -2.97460
O         14.93856        31.58832         1.33157
H         14.40265        30.92685         1.83624
O          4.69642        18.57740         3.29864
H          5.57994        18.27755         3.64271
O         17.47066        12.60856         2.92213
H         17.36188        11.66945         3.17889
O          4.04740        37.05690         1.19869
H          4.29751        37.82418         1.75374
O          6.09966        11.28884        -1.51131
H          6.12223        10.51451        -2.11388
O         11.16512         5.14027        -4.59496
H         10.31369         4.90479        -5.01926
O         10.60315        23.53143         2.84179
H         11.41243        23.84932         3.30681
O          6.23725         7.29446         1.03355
H          5.38184         6.84324         1.20189
O          9.87515        33.71702        -3.08686
H          8.98746        34.02816        -3.39717
O          8.46364        37.06738        -3.16618
H          8.42696        37.89456        -3.68973
O         17.22430        18.74894         3.82471
H         17.63582        17.95506         4.24522
O         10.06891        22.55230        -0.66626
H          9.25614        22.07450        -1.02262
O          8.77492        36.42589         0.43612
H          9.54957        37.02187         0.53056
O          8.48523        16.27901        -0.52610
H          9.34332        15.93583        -0.85403
O          2.24631         7.98768         1.21934
H          1.42400         8.40007         1.56240
O         13.48319        23.80164         3.04837
H         13.68568        22.96828         3.52800
O         13.96943        14.75787        -0.20756
H         13.31976        15.27836        -0.72650
O         12.36868         9.15705         1.85060
H         12.45041         9.85858         2.53357
O         14.48029        14.22287         3.36543
H         14.18544        13.33368         3.67473
O          5.60585        20.08301        -0.66823
H          6.35359        20.45444        -1.24179
O         11.10639         7.75024        -3.29123
H         11.19149         7.02554        -3.95973
O          7.31090        18.39654         3.27454
H          7.75992        19.22064         3.56850
O         19.94688        24.83750        -1.23237
H         19.91246        23.85726        -1.21017
H          1.45423         2.79321        -2.76641
H         -0.75664         3.88007        -2.39054
H         -0.89033         6.19790        -1.54793
H         -0.89259         8.15816        -1.38499
H         -0.97392        10.47624        -0.64968
H         -0.94965        12.38919        -0.40131
H         -0.96064        14.77960         0.02254
H         -1.08435        16.50788         0.88961
H         -1.10726        18.93658         0.95860
H         -1.09053        20.83768         0.99051
H         -1.07291        23.24963         1.05675
H         -1.02929        25.13669         1.21449
H         -1.01911        27.54898         1.09431
H         -1.06535        29.44290         0.71964
H         -1.03267        31.84347         0.44510
H         -0.96765        33.78107         0.23275
H         -0.85873        36.23884         0.08234
H          0.45346        38.34748        -0.32270
H          3.88536         2.91868        -2.79318
H          2.65746        39.45022        -0.14197
H          6.33374         3.06499        -2.94204
H          5.03885        39.35615        -0.73696
H          8.77492         3.26904        -3.22400
H          7.48773        39.30533        -1.18432
H         11.20197         3.42042        -3.38292
H          9.93065        39.26584        -1.70167
H         13.64064         3.33539        -3.20383
H         12.37732        39.23958        -1.51156
H         16.09515         3.18458        -2.84966
H         14.81600        39.21339        -1.54729
H         18.54794         3.10861        -2.65330
H         17.28361        39.18968        -1.68967
H         20.69393         4.23913        -2.12562
H         21.93064         6.23414        -1.37148
H         21.95735         8.55474        -0.56257
H         21.93318        10.44739        -0.27695
H         21.91252        12.78098         0.43284
H         21.94200        14.40060         1.53532
H         21.97818        16.80165         1.88930
H         21.93915        18.71351         1.84726
H         21.90280        21.13017         1.57809
H         21.78163        23.08206         1.88327
H         21.81909        25.37957         1.06724
H         21.88139        26.95387        -0.15105
H         21.91705        29.35941        -0.56643
H         21.94788        31.21488        -0.97959
H         21.95101        33.58060        -1.50880
H         21.94651        35.49912        -1.68436
H         21.90628        37.95885        -1.72812
H         19.74645        39.20429        -1.69128
