         268
 CSIRO Nanostructure Databank - Neutral Graphene Oxide Data Set
C        -11.25304         0.67294         0.37952
C        -10.03451         1.48331         0.29989
C         -8.79197         0.69881        -0.10488
C         -7.52390         1.52263         0.11532
C         -6.20986         0.81019         0.11310
C         -4.93114         1.55021        -0.19159
C         -3.79939         0.80853        -0.90780
C         -2.44048         1.53185        -0.66589
C         -1.28594         0.79307        -1.36543
C          0.05621         1.45898        -1.20740
C          1.30802         0.70931        -1.55198
C          2.56451         1.49853        -1.84345
C          3.86244         0.74198        -1.66917
C          4.94126         1.46714        -0.89593
C          5.97751         0.72438        -0.11920
C          7.38934         1.26678         0.01237
C          8.40866         0.52867         0.85812
C          9.49869         1.34350         1.58236
C         10.88659         0.74623         1.48093
C        -10.02838         2.83431         0.42607
C         -8.86921         3.75646         0.07301
C         -7.60094         2.96554        -0.28508
C         -6.33211         3.72491        -0.46642
C         -4.99960         3.02232        -0.42949
C         -3.81997         3.74264        -1.03208
C         -2.51596         2.97280        -1.18321
C         -1.22283         3.72342        -1.30701
C          0.07036         2.97509        -1.05390
C          1.36074         3.71629        -1.18181
C          2.59458         2.98951        -1.66979
C          3.93155         3.69638        -1.50385
C          5.17626         2.91154        -1.22167
C          6.31381         3.54176        -0.45622
C          7.63670         2.76518        -0.44246
C          8.65037         3.48836         0.44118
C          9.55069         2.81150         1.19651
C         -8.51003         4.79154         1.17205
C         -7.41029         5.75163         0.70788
C         -6.35113         5.20593        -0.18877
C         -5.04075         5.95069        -0.30266
C         -3.79062         5.22773        -0.77382
C         -2.45302         5.73367        -0.29522
C         -1.22832         5.21387        -1.01404
C          0.08369         5.91763        -0.84265
C          1.36708         5.23531        -1.39941
C          2.62805         5.78616        -0.74096
C          3.91361         5.06976        -0.90215
C          5.20818         5.82467        -0.81199
C          6.36852         5.02641        -0.30145
C          7.66687         5.71274        -0.07270
C          8.72738         4.95150         0.30771
C         -7.33633         7.03083         1.16282
C         -6.15017         7.90868         0.98839
C         -4.91261         7.27728         0.40419
C         -3.59987         7.67018         1.01396
C         -2.35762         6.94804         0.57631
C         -0.99886         7.55587         0.92755
C          0.21307         6.94330         0.27641
C          1.58384         7.50153         0.58656
C          2.64544         7.25644        -0.44906
C          3.90204         8.03491        -0.43927
C          5.20930         7.30111        -0.60442
C          6.40604         7.93634         0.11600
C          7.73709         7.23117        -0.27116
C         -5.96855         9.12389         1.83697
C         -4.77123         9.72992         1.98009
C         -3.49257         9.02213         1.69621
C         -2.20935         9.69140         1.61968
C         -0.89200         8.94976         1.62805
C          0.23487         9.92207         1.16337
C          1.37418         9.76234         0.49658
C          2.55198        10.05042        -0.08150
C          3.89833         9.39283         0.30602
C          5.17204        10.10368        -0.12655
C          6.33588         9.42975        -0.18687
C        -11.22994        -0.67672         0.48999
C         -9.97314        -1.40268         0.81303
C         -8.69462        -0.62163         0.68363
C         -7.38614        -1.36461         0.65474
C         -6.23179        -0.68722        -0.02733
C         -4.98216        -1.44159        -0.34005
C         -3.69056        -0.67572        -0.52580
C         -2.46998        -1.44607        -0.93564
C         -1.31745        -0.69426        -1.54646
C         -0.04485        -1.47636        -1.83734
C          1.25302        -0.74024        -1.99892
C          2.56220        -1.52262        -2.00466
C          3.84169        -0.75349        -1.72037
C          4.81350        -1.50215        -0.84542
C          5.77032        -0.75798         0.02835
C          6.90335        -1.50771         0.65281
C          8.03161        -0.82864         1.39902
C         10.38642        -1.40108         0.25807
C         11.25933        -0.41735         0.92460
C         -9.87087        -2.86790         0.65313
C         -8.69986        -3.55584         0.57694
C         -7.38656        -2.86910         0.76142
C         -6.11317        -3.62972         0.47022
C         -4.79907        -2.89394         0.10515
C         -3.89750        -3.62706        -0.90467
C         -2.61782        -2.91786        -1.28380
C         -1.33521        -3.70173        -1.54953
C         -0.02804        -2.93927        -1.43623
C          1.25794        -3.71974        -1.45248
C          2.55319        -3.02341        -1.83380
C          3.86517        -3.76205        -1.58500
C          5.06913        -2.93489        -1.22920
C          6.32077        -3.61339        -0.79032
C          7.20767        -2.84832         0.12905
C          8.63563        -3.32834         0.30790
C          9.38557        -2.15152         0.99878
C         -8.71231        -4.98494         0.01923
C         -7.57146        -5.80638         0.64014
C         -6.21785        -5.10972         0.35408
C         -5.26244        -5.85727        -0.56341
C         -3.94513        -5.14227        -0.95016
C         -2.65158        -5.90855        -1.11512
C         -1.31977        -5.20358        -1.34426
C         -0.04255        -5.92832        -1.00900
C          1.24166        -5.23756        -1.40516
C          2.55708        -5.95417        -1.18111
C          3.90364        -5.23495        -1.28121
C          5.20246        -5.99199        -0.88569
C          6.53840        -5.13619        -0.65810
C          7.32736        -5.42729         0.64476
C          8.38733        -4.64594         1.02996
C         -7.51869        -7.28931         0.31443
C         -6.34083        -7.97586         0.25016
C         -5.06821        -7.21933         0.07726
C         -3.78055        -7.94690        -0.00629
C         -2.60370        -7.35970        -0.72344
C         -1.29033        -8.03681        -0.50008
C         -0.03417        -7.24283        -0.63296
C          1.24860        -8.05973        -0.50416
C          2.47972        -7.17680        -0.31675
C          3.70097        -7.77394         0.28094
C          5.09288        -7.26664        -0.03437
C          6.00193        -7.46903         1.14332
C          7.03791        -6.62412         1.40603
C         -6.23955        -9.42264         0.30257
C         -5.04275       -10.08298         0.33065
C         -3.76801        -9.41054         0.23006
C         -2.55048       -10.00998         0.44301
C         -1.30219        -9.28761         0.31320
C         -0.11876        -9.74198         0.86158
C          1.16907        -9.12875         0.57644
C          2.28675        -9.62937         1.16164
C          3.66885        -9.23968         0.71475
C          4.71639        -9.48025         1.77328
C          5.76322        -8.64949         1.96091
O         -1.30527        -4.59570        -2.68133
O          8.12703         2.73220        -1.73174
O         -5.64572         8.28025        -0.35605
O          6.21090        -3.08777        -2.13447
O         -5.96550        -1.20268        -1.37377
O         -2.03768        -8.19431        -1.77020
O          8.42135         0.41283        -0.58837
O          3.16425         5.02070         0.36555
O          2.86235        -6.88078         1.07158
O          0.82809         3.37537         0.12250
O         -3.96505         4.69983        -2.10756
O         -7.12058         3.27571        -1.62273
O         -2.42363         5.57715         1.14314
O         -4.14072        -7.18101         1.21092
O          4.37385         0.01457        -2.82565
O         -5.70447        -4.55197         1.57389
O         -7.13640        -2.01339         1.93152
O          4.11706        -4.72680        -2.63073
O          7.46643        -5.48910        -1.70107
O         -3.55532         7.71906         2.46643
O          0.70816        -3.18108        -0.19463
O         -4.57657         2.47663         0.86631
O         -1.90176         3.20809        -2.48217
O         -1.62639         0.21652        -2.65277
O         -6.83217         1.25408         1.35979
O          4.49450        -1.22553         0.55618
O          5.59487        -8.05053        -1.20057
O         -0.26759         6.49990         1.58774
O         -3.72701        -3.06184        -2.22444
O          4.90152         3.41581        -2.54426
O         -6.04281         6.02075        -1.35152
O          6.52298        -2.68521         1.43109
O          1.91969         7.58196         1.77538
O         -8.86732         0.35275        -1.45462
O         -0.78703         6.22172        -1.97916
O          0.86131         0.81620        -0.16596
O          5.94474         4.14002         0.81063
O          1.89096        -6.00438        -2.47010
O          5.48374         6.73596        -1.92247
O          4.89332         1.40862         0.57464
O          2.44837         2.38059        -2.98862
O          2.61297        -2.41354        -3.14943
O          0.45745        -1.11150        -3.15045
O          2.96580         8.09588        -1.57947
O         -2.66535        -1.01901         0.45532
O         -3.54034        -5.66839        -2.24594
O         -9.32304        -0.73398         1.96912
O          1.44591        -8.76178        -1.75922
O         -4.01105        -2.87461         1.31231
H         -4.60393        -2.70113         2.07509
O          9.23402        -3.60633        -0.97349
H          8.71180        -4.32697        -1.42622
O          1.48885         5.50247        -2.79463
H          0.59815         5.73656        -3.14825
O         -2.12630         1.62381         0.72190
H         -2.17422         0.72677         1.12593
O         -8.59226        -4.92204        -1.40471
H         -7.72323        -5.28995        -1.69239
O         -0.08090       -10.81764         1.69283
H         -0.98374       -11.16644         1.83114
O         -7.82555        -5.78544         2.06262
H         -7.04188        -5.37126         2.49879
O          7.85668        -0.88482         2.74458
H          7.28336        -1.65864         2.95403
O          6.25521         7.71464         1.52925
H          5.50528         8.27885         1.85726
O         -8.02483         4.06492         2.30103
H         -7.83669         4.68692         3.03235
O         10.58869        -1.50087        -1.01369
H         10.03052        -2.22067        -1.42500
O          3.98624       -10.06458        -0.43251
H          3.25619        -9.96825        -1.08550
O         -0.55049         8.67696         3.00478
H          0.01785         7.86917         3.00703
O          9.17775         1.31771         2.99799
H          8.52216         2.02243         3.18472
O          8.08121         7.52381        -1.62465
H          7.36056         7.17897        -2.20232
O         -4.15970         0.90544        -2.28860
H         -3.41726         0.58245        -2.85381
O          4.00290         9.21175         1.72367
H          3.22138         8.68485         2.03893
O          5.45445        -6.86505        -2.06233
H          6.99475        -6.07487        -2.34958
O         -6.00932        -6.03144        -1.79024
H         -5.35892        -6.11560        -2.52878
O         -9.28743         4.52641        -1.06727
H         -8.74895         4.23302        -1.84029
H         12.33728        -0.63773         0.83897
H         11.68382         1.38288         1.89672
H         10.32418         3.38228         1.73794
H          9.68322         5.43551         0.56600
H          8.55423         7.64049         0.37386
H          7.26065         9.95251        -0.47579
H          5.13994        11.18158        -0.34675
H          2.53650        10.54114        -1.07327
H          0.16885        10.86504         1.74407
H         -2.18559        10.78388         1.74324
H         -4.70485        10.70205         2.49120
H         -6.88040         9.62750         2.19364
H         -8.12734         7.40353         1.83454
H         -9.42247         5.38518         1.45691
H        -10.97572         3.34759         0.66151
H        -12.21812         1.19177         0.26746
H        -12.16793        -1.25197         0.45983
H        -10.80358        -3.40286         0.41068
H         -9.69740        -5.45823         0.27570
H         -8.46306        -7.84739         0.41322
H         -7.17397        -9.99621         0.39067
H         -5.03354       -11.17755         0.44280
H         -2.51792       -11.07609         0.72125
H          1.38348        -8.09940        -2.48667
H          2.18375       -10.45163         1.88585
H          4.60599       -10.37217         2.40786
H          6.49288        -8.85672         2.75833
H          7.68516        -6.83114         2.27237
H          8.98046        -4.93100         1.91295
H          9.73534        -2.38479         2.02280
