         656
 CSIRO Nanostructure Databank - Neutral Graphene Oxide Data Set
C          6.12470        31.91032         0.25344
C          5.90372        33.21830        -0.06868
C          8.75177        27.77603         0.05423
C          8.61551        29.12172        -0.38452
C          7.50741        29.87159         0.15450
C          8.12249        31.78662        -1.23183
C          7.26373        31.16809        -0.24812
C          7.79068        33.06601        -1.60257
C          6.85979        33.91324        -0.89812
C          8.23913        36.02524        -1.03225
C          6.99534        35.30128        -0.87827
C          8.28172        37.37035        -0.66894
C         10.87476        23.30394         0.41579
C         10.48753        24.49386        -0.21927
C          9.76225        25.59879         0.23354
C         10.76713        27.42582        -1.27110
C          9.74486        26.88812        -0.40080
C         10.61254        28.81710        -1.89089
C          9.49085        29.66400        -1.32861
C         10.61064        31.82326        -2.15472
C          9.23010        31.02506        -1.95969
C         10.73605        33.26371        -1.82573
C          9.61242        34.13158        -1.90023
C         10.72473        35.83773        -0.51766
C          9.50541        35.34143        -1.24224
C         10.76441        37.33306        -0.42817
C          9.52280        38.06584        -0.40980
C         10.73016        40.05178         0.52584
C          9.51378        39.40742        -0.06032
C         10.79638        41.54557         0.39465
C         13.33699        19.06809         0.12220
C         13.31495        20.46132         0.17278
C         12.12596        21.20388         0.24139
C         13.23846        23.28905        -0.47128
C         12.07559        22.61741         0.02327
C         13.29143        24.65311        -0.92930
C         12.09203        25.33491        -1.31693
C         13.21670        27.40666        -1.91835
C         11.97295        26.73202        -1.50163
C         13.14738        28.87592        -2.17062
C         11.91891        29.59381        -1.84868
C         13.21524        31.76247        -1.96971
C         11.91984        31.03302        -2.14542
C         13.21422        33.15213        -1.67167
C         11.98209        33.87128        -1.48319
C         13.22781        35.91247        -0.86611
C         12.00040        35.21817        -1.03621
C         13.24656        37.28850        -0.41640
C         12.00541        37.99029        -0.23390
C         13.22881        40.05139         0.33375
C         12.01233        39.36846         0.12665
C         13.21278        41.42690         0.68575
C         12.00051        42.20534         0.61869
C         13.25328        44.33431         0.96312
C         12.07747        43.64895         0.68552
C         13.37388        45.75295         0.88902
C         15.80156        14.85963         0.60258
C         15.79645        16.12973        -0.26895
C         14.55679        16.96376        -0.11013
C         15.84401        19.04468         0.41210
C         14.55680        18.31718         0.09511
C         15.85149        20.49043        -0.00512
C         14.58845        21.26680         0.27543
C         15.80712        23.32002        -0.40317
C         14.52679        22.51059        -0.60295
C         15.73310        24.80658        -0.39450
C         14.49643        25.39629        -0.92819
C         15.76588        27.57350        -1.42805
C         14.54081        26.73151        -1.53780
C         15.72270        28.88188        -1.94749
C         14.47603        29.61461        -2.30203
C         15.66532        31.82768        -2.08142
C         14.44561        31.08550        -2.09342
C         15.67114        33.19210        -1.80738
C         14.44336        33.86601        -1.52881
C         15.71588        35.88579        -0.78208
C         14.43925        35.23662        -1.14032
C         15.73173        37.31811        -0.44684
C         14.48856        37.97926        -0.22781
C         15.71615        40.02987         0.36094
C         14.48370        39.35278         0.17330
C         15.74005        41.39304         0.88066
C         14.45269        42.05716         1.13301
C         15.76717        44.24919         1.35614
C         14.46333        43.57092         1.33993
C         15.80093        45.65757         1.41943
C         14.58147        46.42051         1.14142
C         15.89170        48.51286         1.27232
C         14.70120        47.82503         0.97560
C         16.02613        49.88770         1.07266
C         18.27504        10.47071         0.77181
C         18.21836        11.86371         0.30546
C         17.03352        12.69615         0.53306
C         18.30864        14.74929         0.08310
C         17.06110        14.04715         0.34302
C         18.30455        16.18577        -0.03477
C         17.07879        16.90758        -0.07677
C         18.30617        19.02272        -0.05064
C         17.07902        18.29957        -0.01720
C         18.30221        20.47961        -0.12513
C         17.02777        21.17721        -0.21309
C         18.29941        23.35627        -0.66989
C         16.99164        22.64260        -0.37871
C         18.27723        24.82551        -0.30838
C         17.00345        25.62996        -0.34049
C         18.17969        27.80855        -1.01455
C         16.97940        27.02489        -0.90363
C         18.22121        29.02541        -1.74588
C         16.96790        29.59529        -2.21287
C         18.20690        31.87781        -2.20678
C         16.94753        31.15722        -2.38391
C         18.20700        33.29499        -2.14341
C         16.89314        34.03898        -2.09240
C         18.34395        35.91570        -0.98067
C         16.99878        35.19983        -1.11170
C         18.22820        37.41841        -0.79938
C         16.95619        38.03475        -0.43655
C         18.15103        40.18797        -0.00480
C         16.91538        39.39484        -0.02915
C         18.19476        41.33405         0.95275
C         16.91902        42.06481         1.15114
C         18.19719        44.18311         1.57598
C         16.96163        43.49249         1.42586
C         18.22420        45.58086         1.73481
C         17.02282        46.31354         1.67423
C         18.30198        48.47325         2.08346
C         16.96594        47.77733         2.04701
C         18.35951        49.86676         1.99083
C         17.17369        50.60479         1.51989
C         18.22516        52.75839         2.12762
C         17.18920        51.99157         1.45798
C         18.19859        54.27743         2.00991
C         20.54254         6.58536         2.58970
C         20.63199         7.79689         1.91442
C         19.52728         8.31211         1.02122
C         20.71939        10.57329         0.90149
C         19.47065         9.83242         0.94605
C         20.79330        11.90264         0.52573
C         19.56072        12.60611         0.12968
C         20.78315        14.77950         0.20854
C         19.53617        14.07345         0.14767
C         20.77930        16.18898         0.13555
C         19.53252        16.89747         0.02076
C         20.76545        19.05476         0.35801
C         19.51535        18.31592        -0.00431
C         20.76399        20.51105         0.00724
C         19.51227        21.18106        -0.08960
C         20.76444        23.39932         0.24989
C         19.47861        22.66473         0.00210
C         20.79712        24.86121        -0.00006
C         19.43952        25.38609         0.13300
C         20.67454        27.76943        -0.92892
C         19.41659        27.40633        -0.42624
C         20.64631        29.04571        -1.55739
C         19.44558        29.73689        -1.84233
C         20.63532        31.91560        -2.12207
C         19.44226        31.17409        -2.12431
C         20.65475        33.34790        -2.24233
C         19.39281        34.03196        -2.19203
C         20.64255        36.26352        -1.97522
C         19.29353        35.55542        -2.13864
C         20.68954        37.52636        -1.20259
C         19.42157        38.12477        -0.81660
C         20.69403        40.11406         0.12429
C         19.42873        39.55455        -0.43711
C         20.71141        41.60877         0.41190
C         19.49338        41.99255         1.25749
C         20.75820        44.08406         2.01718
C         19.44922        43.40101         1.77424
C         20.78956        45.56405         1.98777
C         19.53108        46.35312         1.70453
C         20.81383        48.39354         2.41062
C         19.49368        47.65197         2.52675
C         20.79276        49.85465         2.78397
C         19.56854        50.57203         2.24843
C         20.83194        52.75476         2.75170
C         19.52523        52.00807         2.46989
C         20.81547        54.24446         2.31237
C         19.56443        54.90661         1.81829
C         20.79519        56.80134         0.75192
C         19.59658        56.05970         1.09591
C         20.74544        57.84501        -0.12687
C         22.87387         4.27514         4.40943
C         21.72289         4.74986         3.80191
C         22.80204         6.92717         3.50864
C         21.67333         6.07798         3.29648
C         22.67104         8.29461         3.11383
C         21.76388         8.63363         2.10470
C         23.30709        10.49571         1.00880
C         21.95139         9.82101         1.21948
C         23.26857        11.96854         0.81531
C         22.04556        12.63722         0.56395
C         23.24586        14.78657         0.41756
C         22.02567        14.06000         0.38006
C         23.25378        16.20735         0.22113
C         22.02259        16.91889         0.11219
C         23.23650        19.05338        -0.11548
C         22.03309        18.32814         0.02988
C         23.22805        20.48745        -0.13850
C         21.99615        21.18741         0.00451
C         23.32287        23.40725         0.08335
C         22.04259        22.64178         0.26167
C         23.32070        24.96612         0.05922
C         21.93755        25.61349        -0.22887
C         23.13968        27.61711        -1.07504
C         21.93868        27.02640        -0.67572
C         23.13480        28.91006        -1.88508
C         21.92630        29.75651        -1.58728
C         23.16879        31.86162        -2.27547
C         21.90238        31.22024        -1.85263
C         23.16470        33.35403        -2.40471
C         21.88230        34.05492        -2.28362
C         23.21575        36.16860        -1.79335
C         21.93633        35.51864        -2.17280
C         23.18804        37.50110        -1.27778
C         21.92516        38.11870        -0.92690
C         23.23917        40.10597         0.02373
C         21.96667        39.37305        -0.13282
C         23.20129        41.41226         0.69825
C         22.02039        42.06375         0.99819
C         23.26765        44.16081         1.62139
C         22.07025        43.28388         1.91119
C         23.23410        45.52100         1.92169
C         21.98064        46.24455         2.07850
C         23.27094        48.41576         2.33478
C         21.99044        47.71262         2.23949
C         23.29756        49.86362         2.43522
C         22.07818        50.59127         2.47098
C         23.29785        52.65618         2.01821
C         22.08176        51.98652         2.32452
C         23.24133        54.03705         1.41255
C         22.09941        54.90951         1.90675
C         23.36093        56.90397         0.82632
C         22.07335        56.30058         1.30902
C         23.30817        58.11728        -0.05402
C         21.93957        58.60715        -0.54239
C         23.10912        59.85760        -2.31918
C         21.93130        59.39369        -1.77797
C         24.04291         5.05811         4.45140
C         25.32799         7.04820         3.79081
C         24.05253         6.36798         3.95114
C         25.62559         8.04698         2.87176
C         24.72202         8.43120         1.72680
C         25.68183        10.68788         1.78207
C         24.56909         9.90567         1.53052
C         25.67965        12.09452         1.44279
C         24.47207        12.71604         0.97841
C         25.68771        14.86532         0.79554
C         24.47099        14.11971         0.71809
C         25.70273        16.25825         0.48170
C         24.47506        16.92757         0.20859
C         25.69929        19.02536        -0.19352
C         24.48510        18.33538        -0.06550
C         25.66252        20.40004        -0.81571
C         24.45196        21.22515        -0.37415
C         25.77294        23.37486        -0.52599
C         24.48684        22.60520        -0.38590
C         25.60128        24.72877        -1.25467
C         24.46706        25.57716        -0.71587
C         25.63934        27.60774        -1.49181
C         24.42412        26.91970        -1.07132
C         25.63424        28.99682        -1.75217
C         24.42166        29.69170        -1.80995
C         25.70670        31.96315        -2.00132
C         24.41318        31.15687        -1.83845
C         25.64352        33.39767        -2.34281
C         24.44713        34.08313        -2.26851
C         25.70284        36.17861        -1.81553
C         24.43160        35.49692        -1.99259
C         25.67892        37.55138        -1.33807
C         24.42439        38.16803        -1.01083
C         25.70084        40.05758         0.00629
C         24.40081        39.47024        -0.36972
C         25.70288        41.36594         0.72302
C         24.45302        42.10692         0.97675
C         25.78901        44.19995         1.51135
C         24.48366        43.46071         1.29054
C         25.62090        45.71223         1.39991
C         24.45235        46.30266         1.85494
C         25.76075        48.36197         2.44987
C         24.45615        47.71170         2.17281
C         25.79454        49.87442         2.61530
C         24.52470        50.58083         2.38799
C         25.79845        52.63887         1.77255
C         24.52463        51.96222         2.06599
C         25.78304        54.00804         1.33491
C         24.57175        54.75001         1.26419
C         25.78639        56.65087         0.26210
C         24.58612        56.06898         0.80021
C         25.72036        57.83046        -0.54272
C         24.50589        58.47049        -0.84115
C         24.37987        59.44306        -1.85008
C         26.81557         8.83150         2.97585
C         28.04677        10.90442         2.51587
C         26.87948        10.10062         2.38961
C         28.06361        12.23622         2.10703
C         26.86188        12.84888         1.58915
C         28.09737        14.97861         1.29843
C         26.88608        14.22962         1.22333
C         28.12329        16.31182         0.82177
C         26.93218        16.97809         0.45678
C         28.14940        19.09751        -0.05131
C         26.93914        18.37636         0.05706
C         28.15023        20.51119        -0.35986
C         26.96016        21.14787        -0.67510
C         28.20608        23.33063        -0.98905
C         26.93197        22.56802        -1.15943
C         28.14778        24.74334        -1.19912
C         26.94624        25.43761        -1.26139
C         28.21045        27.58386        -1.63411
C         26.94349        26.93613        -1.11369
C         28.16601        28.99312        -2.10327
C         26.85013        29.71904        -2.32437
C         28.15943        31.97813        -2.24365
C         26.94945        31.22733        -2.10176
C         28.16627        33.38149        -2.43474
C         26.89383        34.14923        -2.72665
C         28.16017        36.37145        -2.36091
C         26.89798        35.55592        -2.16415
C         28.16043        37.66347        -1.55734
C         26.92814        38.22359        -1.17806
C         28.20541        40.16258        -0.19611
C         26.91395        39.69264        -0.82964
C         28.20138        41.33828         0.50432
C         26.95716        42.13881         0.54498
C         28.33445        44.14352         1.13368
C         26.99352        43.58812         0.80054
C         28.57141        45.46127         0.99280
C         26.73768        46.58709         1.17821
C         28.29208        48.39399         1.85861
C         26.97398        47.73442         1.89624
C         28.30878        49.79689         1.99629
C         27.13145        50.61131         2.53267
C         28.26033        52.62623         1.56631
C         27.01771        51.96744         1.87670
C         28.23814        53.96073         1.12302
C         27.01763        54.65697         0.98395
C         26.99411        55.95274         0.41530
C         29.23953        13.04748         2.25879
C         30.48360        15.20861         2.22018
C         29.27316        14.36656         1.87212
C         30.64466        16.43395         1.34292
C         29.42509        16.97580         0.62030
C         30.66950        19.23133         0.38373
C         29.42964        18.39324         0.13343
C         30.56081        20.69904         0.24734
C         29.39132        21.28442        -0.26891
C         30.64215        23.40438        -0.58975
C         29.40762        22.67746        -0.62993
C         30.78371        24.71350        -1.36105
C         29.41150        25.40917        -1.68512
C         30.72817        27.62766        -1.74461
C         29.39720        26.91404        -1.57009
C         30.58581        29.10606        -1.40609
C         29.42285        29.80584        -2.01300
C         30.61970        31.97267        -1.85569
C         29.40219        31.27471        -2.00390
C         30.68360        33.31662        -2.33281
C         29.45882        34.09604        -2.78911
C         30.71547        36.41571        -2.18383
C         29.47288        35.56781        -2.22289
C         30.61402        37.93003        -2.10083
C         29.39337        38.35194        -1.31258
C         30.69359        40.06214         0.00502
C         29.44679        39.50178        -0.50271
C         30.67301        41.13193         0.88930
C         29.41507        41.81752         1.16491
C         30.79185        43.96323         1.69011
C         29.46283        43.30994         1.56643
C         30.93036        45.46634         1.33129
C         29.62725        46.17082         1.78193
C         30.76671        48.38210         1.66330
C         29.52644        47.68166         1.68510
C         30.74740        49.79446         1.65782
C         29.53408        50.50841         1.79631
C         29.49062        51.92198         1.65322
C         31.72379        17.37370         1.67661
C         32.81508        19.56506         1.59826
C         31.75656        18.67825         1.22751
C         32.85373        20.90043         1.18803
C         31.71066        21.48144         0.50236
C         33.06094        23.51319         0.07042
C         31.75708        22.81590         0.01506
C         33.08570        24.97484        -0.30741
C         31.84278        25.63104        -0.75906
C         33.02213        27.78355        -0.62417
C         31.84515        26.99116        -0.93957
C         33.06594        29.18207        -0.88593
C         31.80525        29.91022        -1.08464
C         33.09774        31.97627        -1.57028
C         31.84779        31.32356        -1.49507
C         33.17860        33.31647        -2.08178
C         31.94682        33.79608        -2.62357
C         33.22407        36.37682        -2.18761
C         32.02968        35.92099        -2.65923
C         33.26917        37.89934        -2.06782
C         31.95079        38.69105        -1.68870
C         33.15188        40.00086         0.09822
C         31.96987        39.43758        -0.35746
C         33.14428        41.43171         0.61877
C         31.92742        41.64143         1.59471
C         33.76263        44.33217         1.54986
C         31.82918        43.12573         1.94880
C         33.48601        45.73932         1.42118
C         32.19376        46.27982         1.60134
C         32.02401        47.67665         1.63509
C         33.99216        21.71403         1.47921
C         35.27449        23.80392         1.18028
C         34.12446        23.00267         0.96547
C         35.35627        25.14808         0.77146
C         34.20286        25.79552         0.18015
C         35.35848        28.02557         0.30971
C         34.17575        27.15676        -0.05911
C         35.53873        29.10330        -0.75761
C         34.27124        29.90090        -0.90609
C         35.55814        31.97634        -1.33477
C         34.31306        31.27806        -1.22958
C         35.58753        33.33213        -1.75407
C         34.40063        34.07386        -2.08543
C         35.67577        36.21757        -1.99529
C         34.45990        35.55908        -2.19450
C         35.78966        37.73930        -1.82757
C         34.48200        38.25391        -1.23616
C         35.71973        40.04759         0.05229
C         34.44092        39.34874        -0.21840
C         35.73289        41.30217         0.57092
C         34.52837        41.98259         1.17014
C         34.60543        43.48990         0.89183
C         36.56295        25.89848         0.90220
C         37.85204        27.94563         0.43626
C         36.63700        27.24371         0.52834
C         37.92817        29.28427        -0.03471
C         36.75698        29.95031        -0.52578
C         38.04609        31.97485        -0.95394
C         36.78292        31.27892        -0.95048
C         38.11906        33.29288        -1.41420
C         36.90883        33.96254        -1.91526
C         38.21062        36.15483        -1.61777
C         36.95535        35.49923        -2.05291
C         38.19361        37.45447        -1.12487
C         36.97858        38.17941        -0.99321
C         36.94312        39.35215        -0.27052
C         39.16630        29.97781        -0.06184
C         40.50086        31.97841        -0.61561
C         39.24119        31.28870        -0.52999
C         40.56408        33.27305        -1.04137
C         39.36988        33.99402        -1.39917
C         39.40124        35.38655        -1.52807
O         11.22704        31.42968        -3.41990
O         18.49576        52.34456         3.50453
O         13.98799        26.69431        -2.92074
O         31.95095        39.90153        -2.45510
O         24.21147         7.59250         0.99867
O         25.80074        48.97798         3.77884
O         27.68939        46.21378         0.22781
O         13.73571        29.20236        -3.49709
O         25.03537        31.75066        -0.66056
O         10.96233        24.58344        -1.56407
O         32.95957        43.69595         2.53698
O         21.23666        39.27862         1.17091
O         19.82490        23.09268         1.35262
O          8.50944        33.67567        -2.64189
O         21.66577        54.96802         3.27899
O         16.18428        25.44611         0.87371
O         21.30460        36.30712        -3.28625
O         18.71793        40.46713        -1.35620
O         18.84895        12.03404        -1.00965
O         30.41936        16.14279        -0.06686
O         22.89110        22.94896         1.42804
O         14.30405        42.66063         2.47284
O         18.96432        41.00184         2.17418
O         32.02846        34.83948        -3.53726
O         33.55777        23.91856        -1.24142
O         29.21809        42.28118         2.55473
O         30.19525        35.73105        -0.97478
O         30.80194        29.52039        -0.03705
O         19.94852        43.55961         3.14468
O         22.66425        59.25699         0.56528
O         30.42543        18.59913        -0.91844
O         16.96711        30.25394        -3.52031
O         22.71438         9.62993        -0.02833
O         22.04021        30.69522        -0.47015
O         37.10409        34.62322        -3.20720
O         29.20640        25.27993        -3.20679
O         34.40440        37.90829         0.17230
O         23.18326        32.41828        -3.60166
O         29.03136        29.18567        -3.30248
O         26.82323        43.12432        -0.56694
O         25.90916        40.11016         1.45203
O         19.34934        26.64575         0.73295
O         22.83810        57.20514         2.16574
O         16.43609        34.96658         0.20343
O         25.17566        24.53494        -2.63349
H         25.69882        23.78371        -3.01249
O         29.51412        34.18373        -4.23326
H         28.58279        34.20811        -4.57057
O         36.07582        38.30542        -3.12329
H         35.22875        38.27587        -3.64343
O         26.56888        29.65733        -3.76370
H         27.43921        29.73545        -4.22320
O         19.65870        46.81130         0.31675
H         19.75011        46.02527        -0.26217
O         29.03110        23.87597        -3.53136
H         29.97367        23.54555        -3.44460
O         20.61417        49.90664         4.24470
H         20.73615        50.85759         4.50859
O         15.90300        19.08570         1.89355
H         16.81339        19.36018         2.14019
O         20.94912        52.73033         4.20557
H         20.11822        53.11315         4.56796
O         28.11082        36.77292        -3.77632
H         28.88863        37.37773        -3.93154
O         26.11525        44.00749         2.92286
H         25.30101        44.14543         3.45266
O         14.63810        14.08807         0.32575
H         14.61014        13.96317        -0.64727
O         18.54118        23.19284        -2.10025
H         17.70357        23.35875        -2.58147
O         35.05367        28.70796         1.55378
H         34.97208        28.03487         2.26074
O         33.51934        38.30721        -3.44072
H         33.03078        39.18335        -3.51834
O         10.59024        35.34850         0.88609
H         11.27967        35.80221         1.41737
O          8.72063        30.77416        -3.28256
H          9.41237        30.26017        -3.76574
O         23.61968        25.36545         1.43838
H         23.07994        24.77683         2.02061
O         26.20155        23.68320         0.82686
H         25.45398        24.12814         1.28978
O         20.56712        42.33686        -0.84289
H         19.86307        41.87405        -1.36826
O         19.74086         7.83295        -0.31827
H         20.61965         8.15165        -0.61606
O         30.85776        45.45799        -0.12561
H         31.65474        45.00235        -0.47275
O         26.81730        34.32259        -4.21400
H         26.86336        35.29195        -4.39786
O         22.82188        53.78833         0.00991
H         23.52578        53.25684        -0.42065
O         15.78466        15.63411        -1.64360
H         15.82010        16.40607        -2.24638
O         18.98966        35.39647         0.20594
H         18.28749        35.28366         0.88787
O         16.49309        47.78717         3.44170
H         16.46550        48.72190         3.73772
O         27.04103        27.15425         0.34941
H         26.21468        26.81157         0.75645
O         35.75616        28.40017        -2.01643
H         35.92482        29.06678        -2.71469
O         31.14361        27.50212        -3.13116
H         30.42883        27.91149        -3.67748
O         16.61785        34.62602        -3.39314
H         16.74684        33.93722        -4.07784
O         25.45893        20.13083        -2.24728
H         25.83171        20.89901        -2.74526
O         30.33210        38.36180        -3.46191
H         30.81366        39.24709        -3.51410
O         14.56770        22.03926        -1.98731
H         14.27250        22.77112        -2.56953
O         26.75083        22.47684        -2.63270
H         27.56862        22.85700        -3.05684
O         32.85017        42.22157        -0.56954
H         32.52338        41.60909        -1.27925
O         30.34967        15.67077         3.57573
H         30.16457        14.89831         4.14827
O         23.41981         9.27612         3.69743
H         24.00812         8.88438         4.37622
O         31.38164        24.32669        -2.63810
H         31.61090        25.15749        -3.11372
O         26.73742        40.40317        -2.08896
H         27.50750        40.20413        -2.66233
O         19.32622        47.31866         3.92161
H         19.55766        48.12081         4.44423
O         17.31957        54.66478         0.95036
H         17.71894        54.40339         0.09551
O         22.96868        28.48723        -3.27644
H         23.78989        28.02620        -3.55328
O         18.71979        36.06489        -3.35201
H         19.45439        36.14566        -4.00226
O         10.30860        28.56578        -3.31218
H         11.14883        28.31950        -3.75773
O         29.39092        45.83299         3.17430
H         30.05036        46.30676         3.72307
O         22.35463        42.75935         3.24245
H         21.48058        42.60960         3.67854
O         34.67187        41.71173         2.57248
H         33.94412        42.16604         3.05581
O         14.69553        21.69820         1.65787
H         14.89519        20.89195         2.18874
O         27.51636        50.90945         3.91283
H         27.20494        50.14800         4.45625
O         32.12496        40.85798         2.78537
H         31.29229        40.88204         3.30340
O         10.61264        39.80613         2.00387
H         11.36301        40.27857         2.42747
O         20.73592        19.06389         1.85576
H         21.43523        19.68595         2.15408
H          5.44360        31.39263         0.94461
H          5.07046        33.77586         0.38315
H          8.02168        27.40485         0.78923
H          6.83984        29.37727         0.87438
H          6.18045        35.87346        -0.40267
H          7.34145        37.91049        -0.48232
H         10.29118        22.90146         1.25586
H          9.17476        25.49202         1.15719
H          8.56094        39.95744        -0.02672
H          9.85812        42.11772         0.34195
H         12.38493        18.52033         0.03692
H         11.17436        20.67590         0.40790
H         11.16246        44.22023         0.46816
H         12.48568        46.34336         0.61735
H         15.76880        15.15144         1.68572
H         13.59969        16.45029        -0.29496
H         13.83577        48.39164         0.59842
H         15.19552        50.45460         0.62522
H         17.33026         9.91741         0.89157
H         16.10379        12.21775         0.87696
H         16.37833        52.53206         0.94859
H         17.74661        54.68028         2.95423
H         19.63900         5.96610         2.49836
H         18.53961         7.90868         1.35946
H         18.63957        56.46247         0.72766
H         19.77582        58.13332        -0.56326
H         22.90382         3.24732         4.79755
H         20.84714         4.09584         3.68495
H         23.07071        60.50865        -3.20452
H         20.97033        59.60891        -2.26750
H         24.98296         4.60884         4.80282
H         26.14053         6.72335         4.46516
H         26.63891        58.16689        -1.04676
H         25.28127        59.78240        -2.38024
H         27.63345         8.49744         3.63363
H         28.95330        10.45898         2.95214
H         29.18003        54.46359         0.85995
H         27.93038        56.39407         0.04420
H         30.13243        12.59033         2.71410
H         31.41279        14.57132         2.14391
H         31.69032        50.35111         1.55402
H         30.42616        52.46689         1.45780
H         32.49753        17.03436         2.38190
H         33.65892        19.15781         2.17534
H         34.31266        46.42932         1.18685
H         32.93368        48.29736         1.66744
H         34.80570        21.28526         2.08333
H         36.12849        23.36133         1.71489
H         36.70139        41.80299         0.72857
H         35.25936        43.86144         0.09005
H         37.48195        25.36773         1.19526
H         38.78665        27.43503         0.71606
H         39.11797        37.87877        -0.70159
H         37.88050        39.74262         0.15767
H         40.07959        29.46654         0.27676
H         41.41454        31.44279        -0.32000
H         41.52694        33.80272        -1.07853
H         40.35176        35.91302        -1.35184
