         276
 CSIRO Nanostructure Databank - Neutral Graphene Oxide Data Set
C        -11.05255         0.61742        -1.48637
C        -10.18109         1.54360        -0.67019
C         -8.85418         0.81420        -0.17956
C         -7.58703         1.39568        -0.85329
C         -6.27890         0.58856        -0.62948
C         -4.94728         1.32566        -0.65503
C         -3.66876         0.65392        -0.23828
C         -2.45635         1.46153         0.10632
C         -1.15858         0.67829         0.01901
C          0.04204         1.39205         0.62518
C          1.18796         0.73512         0.92489
C          2.45247         1.42305         1.39640
C          3.71514         0.64537         0.94215
C          4.95043         1.54631         1.24992
C          6.30230         0.79103         1.32023
C          7.50873         1.50600         0.80895
C          8.73539         0.72677         0.52396
C         10.44109         1.92652        -0.57748
C         11.10443         0.87572        -1.32276
C         -9.76930         2.88446        -1.18102
C         -8.78775         3.61096        -0.31387
C         -7.45659         2.91391        -0.77218
C         -6.16545         3.64760        -0.71006
C         -4.88990         2.84024        -0.73344
C         -3.60781         3.56679        -0.39571
C         -2.45736         2.82533         0.18187
C         -1.30349         3.50921         0.95548
C          0.02383         2.90432         0.47440
C          1.20057         3.55525         1.17186
C          2.49854         2.86908         0.97711
C          3.63448         3.56749         0.69347
C          4.89782         2.82196         0.33335
C          6.17835         3.65760         0.29905
C          7.23678         2.67107        -0.11782
C          9.35451         4.12638        -0.16401
C         10.30980         3.26078        -0.87007
C         -8.66200         5.10104        -0.49848
C         -7.45690         5.78665        -0.29326
C         -6.23040         4.95393         0.08717
C         -4.91828         5.74409         0.12331
C         -3.61633         5.09611        -0.38095
C         -2.45206         5.75645         0.33800
C         -1.27863         5.06225         0.94222
C          0.03185         5.94948         1.27877
C          1.24859         5.00515         1.46985
C          2.61126         5.59809         1.41425
C          3.68332         5.02336         0.78091
C          4.78779         5.67967        -0.06742
C          6.18735         5.00852         0.06372
C          7.37599         5.73998        -0.45893
C          8.65067         5.09636        -0.83710
C         -7.39380         7.18789        -0.33608
C         -6.10426         7.93530        -0.53742
C         -4.89673         7.23856         0.04636
C         -3.61289         7.95048        -0.10147
C         -2.36188         7.18683        -0.08762
C         -1.04144         7.86740        -0.13025
C          0.24521         7.05804         0.16900
C          1.41122         8.06102         0.29134
C          2.59012         7.79949         0.90506
C          3.93312         8.33088         0.55490
C          4.80670         7.25058        -0.19368
C          6.06972         7.88685        -0.69725
C          7.26600         7.04815        -0.85384
C         -6.06012         9.41478        -0.22688
C         -4.87532        10.06284        -0.19015
C         -3.58307         9.35806        -0.22834
C         -2.36155        10.03340        -0.28057
C         -1.03668         9.38034         0.04928
C          0.17301         9.95550        -0.65140
C          1.37088         9.31990        -0.47741
C          2.63718         9.97600        -0.80803
C          3.83997         9.54484        -0.33735
C          5.13963        10.16180        -0.59630
C          6.23231         9.36622        -0.63608
C        -10.95869        -0.72080        -1.39835
C         -9.71439        -1.44584        -0.93438
C         -8.84436        -0.66423         0.04371
C         -7.54104        -1.33924         0.55836
C         -6.29570        -0.84324        -0.16314
C         -5.03181        -1.46431         0.39124
C         -3.73296        -0.72045         0.38300
C         -2.45108        -1.45319         0.54506
C         -1.27474        -0.77907         0.42668
C          0.02382        -1.48140         0.49554
C          1.28591        -0.73758         0.77340
C          2.46476        -1.49704         1.33638
C          3.75820        -0.75254         1.55063
C          5.08435        -1.49854         1.52559
C          6.44561        -0.72897         1.61025
C          7.59959        -1.42738         0.76482
C          8.70343        -0.58728         0.17790
C          9.78917        -1.22724        -0.57582
C         10.88656        -0.46903        -1.19291
C         -9.84424        -2.91455        -0.62989
C         -8.81390        -3.59887        -0.09019
C         -7.72530        -2.92854         0.74999
C         -6.38459        -3.67980         0.50770
C         -5.06394        -2.97584         0.38579
C         -3.72199        -3.71569         0.49459
C         -2.54906        -2.87889         1.09797
C         -1.27915        -3.67334         0.80501
C          0.01090        -2.96202         0.60665
C          1.31136        -3.63892         0.76359
C          2.45525        -2.95994         1.05681
C          3.75874        -3.58927         0.69645
C          5.05107        -2.91627         1.04274
C          6.29483        -3.63037         0.64505
C          7.56459        -2.88607         0.40427
C          8.34580        -3.29501        -0.86414
C          9.64945        -2.53422        -0.97596
C         -8.89560        -5.11437         0.00914
C         -7.56238        -5.85083         0.10977
C         -6.49708        -5.15784         0.94505
C         -5.12078        -5.87830         0.99405
C         -3.82489        -5.12389         1.12578
C         -2.51549        -5.91303         1.13085
C         -1.21932        -5.13437         1.14036
C          0.06420        -5.84431         0.86799
C          1.30599        -5.10637         0.37387
C          2.54734        -5.79153         0.97340
C          3.77223        -5.05932         0.42388
C          5.08543        -5.78563         0.18753
C          6.28646        -4.98410         0.61173
C          7.95371        -5.86935        -0.67200
C          8.48907        -4.76997        -1.28030
C         -7.47594        -7.15253        -0.22520
C         -6.32324        -8.03639         0.21035
C         -5.02211        -7.20608         0.20989
C         -3.80149        -8.06775         0.49945
C         -2.50142        -7.36278         0.75696
C         -1.25790        -7.97514         0.17946
C          0.03496        -7.25139         0.31819
C          1.30756        -8.06441         0.40201
C          2.55817        -7.31698         0.79601
C          3.91085        -7.91337         0.70999
C          5.05815        -7.21970         0.61125
C          6.72258        -8.04825        -0.77475
C          7.67328        -7.17451        -1.27046
C         -6.13587        -9.25405        -0.68357
C         -4.96436        -9.90558        -0.79209
C         -3.74587        -9.45053        -0.07139
C         -2.42315       -10.07733        -0.35150
C         -1.23578        -9.42299        -0.17108
C          0.05746        -9.97313        -0.56319
C          1.27864        -9.37362        -0.34397
C          2.48066        -9.86518        -1.03199
C          3.78168        -9.68378        -0.62387
C          4.93104        -9.78357        -1.52366
C          6.12846        -9.10903        -1.58613
O         -4.00815        -9.20372         1.38195
O         -0.76593        -3.49096        -0.55007
O          7.61829         2.59883        -1.27675
O          0.99586         4.03134         2.55670
O         -0.66547        -7.23319        -0.96157
O         -4.55607        -0.82842         1.61652
O         -8.09658        -3.12907         2.07388
O         -6.90570         3.54382        -1.96165
O         -2.39408         5.53957         1.77162
O         -6.27497        -0.55584        -1.56073
O         -9.20331         0.27265         1.11663
O          3.60058        -4.10695        -0.67195
O          4.91709         7.57745        -1.61187
O         -1.62526         7.43285        -1.37812
O          1.74773        -8.03521         1.80032
O          2.67887         6.87921         1.95258
O          9.91510         1.47535         0.64925
O         -4.56318        -5.54771         2.30703
O          8.28761        -2.47245         1.58179
O         -2.43973        -6.94903         2.15067
O          7.15910         1.60123         2.20525
O          7.49143        -5.68822         0.64394
O         -4.91435         6.53769         1.34926
O         -0.32265        -5.54354         2.23022
O          2.89108        -1.05531         2.66434
O          6.28200        -7.92069         0.55321
O         -4.05822         0.70659        -1.63744
O          3.99420        -9.32037         0.72172
O         -3.94203         3.17098        -1.78086
O          0.95310        -1.11680        -0.60908
O          5.07730        -2.59711         2.48501
O         -5.80975        -3.47079        -0.79873
O        -11.00170         1.80718         0.51156
H        -10.87123         1.03367         1.11599
O         -3.30374        -4.00086        -0.85415
H         -4.10914        -4.17100        -1.39541
O          2.38593         1.43342         2.84189
H          1.87994         2.22991         3.11951
O          0.16452         3.19530        -0.93278
H         -0.26382         2.45822        -1.43978
O         -4.81404        -6.74272        -1.15724
H         -5.67282        -6.41611        -1.50558
O          9.03038         3.86165         1.12702
H          9.50806         3.05591         1.43597
O          7.48615        -2.72494        -1.91845
H          7.91811        -2.88563        -2.78399
O          4.77470         2.10496         2.56255
H          4.93755         1.40914         3.23370
O          1.34968        -5.25895        -1.05175
H          0.61591        -4.71741        -1.42595
O          0.58608         6.29621        -1.00593
H         -0.09139         6.48578        -1.70067
O         -6.41491         4.46574         1.43703
H         -6.27274         5.22725         2.04441
O         -1.49217         3.10804         2.32393
H         -2.10735         3.75506         2.73694
O         -2.71034        -2.77635         2.51681
H         -3.41774        -2.11189         2.69505
O         -8.85260        -1.42556        -2.13085
H         -9.34377        -1.85046        -2.86445
O         -5.85918         7.83562        -1.99038
H         -6.57697         8.32000        -2.44994
O          4.63884         8.67564         1.76297
H          4.29612         8.09273         2.47644
O          5.24512        -5.86963        -1.27432
H          4.80546        -5.06321        -1.64377
O          4.37671         5.19194        -1.39015
H          4.59819         5.91511        -2.03414
O         -0.85419         9.60627         1.48440
H         -0.67477        10.55903         1.62596
O         -7.97175         1.17764        -2.23449
H         -7.24492         1.51012        -2.80587
O         -3.49945         5.56342        -1.74058
H         -3.79732         4.83979        -2.34363
O         -9.68462        -5.64854        -1.05447
H         -9.27641        -5.38553        -1.90424
O         -0.88985         0.68375        -1.42617
H         -0.15563         0.03137        -1.56972
O         -0.19858         6.61749         2.50493
H         -0.22926         5.94656         3.21918
O         -8.92341         3.30617         1.07665
H         -9.81455         2.89535         1.21870
O         -6.61640        -8.48043         1.54654
H         -5.82077        -8.96958         1.86967
O          4.77100         2.47752        -1.07672
H          4.64097         3.34489        -1.54534
O          6.85007        -0.79237         2.97653
H          7.00142        -1.74037         3.19018
O         -7.28483        -0.84951         1.87631
H         -7.71047        -1.51494         2.48984
O          3.60641         0.31492        -0.45292
H          3.73070         1.12725        -1.00598
O         -7.03545        -5.18752         2.26798
H         -6.31568        -4.97605         2.90469
O          2.58082        -5.54320         2.38992
H          1.92624        -6.14061         2.81895
H         11.54532        -1.10626        -1.80795
H         11.87655         1.19186        -2.04221
H         10.68550         3.62060        -1.83873
H          9.03250         5.38474        -1.82747
H          8.15182         7.53618        -1.28891
H          7.23859         9.78393        -0.78561
H          5.21726        11.25197        -0.72205
H          2.58848        10.88069        -1.43363
H          0.12153        10.94411        -1.13182
H         -2.36943        11.13407        -0.33874
H         -4.85100        11.15614        -0.06314
H         -7.00323         9.97867        -0.15783
H         -8.32698         7.73456        -0.55121
H         -9.52216         5.65422        -0.90568
H         -9.78899         3.11503        -2.25753
H        -11.94317         1.06485        -1.95563
H        -11.72101        -1.34206        -1.89789
H        -10.67269        -3.47022        -1.10162
H         -9.43616        -5.35037         0.96541
H         -8.33876        -7.62761        -0.72116
H         -7.02083        -9.63996        -1.21344
H         -4.88185       -10.80034        -1.42837
H         -2.42273       -11.11576        -0.71824
H          0.03834       -10.93173        -1.10561
H          2.31215       -10.32016        -2.02219
H          4.72652       -10.42044        -2.40250
H          6.71152        -9.31930        -2.50017
H          8.02583        -7.33147        -2.30166
H          8.86153        -4.88877        -2.31204
H         10.43233        -2.97523        -1.61488
