         334
 CSIRO Nanostructure Databank - Neutral Graphene Oxide Data Set
C         30.33207        57.21272        -0.20860
C         30.31798        58.63066        -0.24444
C         29.10241        59.36548        -0.26690
C         30.31466        61.46923        -0.35267
C         29.11460        60.76024        -0.31669
C         32.78907        52.90652        -0.13783
C         32.76229        54.34206        -0.14070
C         31.56393        55.06142        -0.17245
C         32.78098        57.21665        -0.18334
C         31.54100        56.49154        -0.18340
C         32.78517        58.63985        -0.23978
C         31.55520        59.35043        -0.27078
C         32.79213        61.47474        -0.39087
C         31.55966        60.78264        -0.33438
C         35.32055        48.65403        -0.00433
C         35.27313        50.04442        -0.03217
C         34.05211        50.76609        -0.13294
C         35.29153        52.91865        -0.24736
C         33.98157        52.17814        -0.13755
C         35.22806        54.39223         0.02712
C         34.01106        55.07823        -0.08110
C         35.25065        57.21105        -0.15818
C         34.01760        56.50889        -0.12242
C         35.25801        58.64720        -0.28811
C         34.02308        59.35292        -0.29339
C         35.27125        61.46379        -0.48916
C         34.02482        60.78220        -0.38627
C         37.80898        44.38483         0.13622
C         37.72085        45.74968         0.46823
C         36.57979        46.49931         0.15394
C         37.67967        48.60971         0.70499
C         36.53320        47.92176         0.28118
C         37.61435        50.06174         0.91452
C         36.58696        50.80052         0.08662
C         37.66473        52.98050         0.62376
C         36.35696        52.22869         0.60740
C         37.69196        54.34328         0.32554
C         36.45467        55.07879         0.12823
C         37.72946        57.16730        -0.10150
C         36.48221        56.49512        -0.02594
C         37.77069        58.60292        -0.58470
C         36.47351        59.35499        -0.42977
C         37.78189        61.53043        -0.72999
C         36.47834        60.76701        -0.53244
C         40.29763        40.18256        -0.53818
C         40.24401        41.55326        -0.10492
C         39.06557        42.29066        -0.16585
C         40.22269        44.30796         0.64750
C         39.02213        43.65746         0.23815
C         40.18479        45.64029         1.35881
C         38.86726        46.39823         1.15686
C         40.14810        48.64502         1.30091
C         38.86360        47.90300         1.20968
C         40.12748        50.01712         1.33136
C         38.85541        50.80111         1.32274
C         40.14450        52.74538         0.39531
C         38.90839        52.34691         1.21897
C         40.20065        54.27465        -0.06835
C         38.93578        55.05334         0.24659
C         40.24084        57.17635        -0.17474
C         38.93565        56.44095         0.05174
C         40.17000        58.59673         0.35596
C         38.90266        59.35732         0.09734
C         40.27472        61.50021         0.01159
C         38.94794        60.85171        -0.01437
C         42.73724        35.97677        -1.33341
C         42.69577        37.33139        -0.92510
C         41.52773        38.09331        -0.94084
C         42.63345        39.99145         0.32075
C         41.45021        39.42509        -0.43417
C         42.67142        41.49863         0.34879
C         41.46838        42.21910         0.28096
C         42.69222        44.31835         0.78880
C         41.45040        43.62223         0.58627
C         42.70269        45.77174         1.03725
C         41.43254        46.49584         1.15006
C         42.66217        48.62921         1.32103
C         41.40527        47.87808         1.28670
C         42.66075        49.99777         1.28720
C         41.39591        50.77478         1.62353
C         42.67111        52.94015         0.85879
C         41.38991        52.24622         1.13233
C         42.68616        54.35152         0.40327
C         41.46939        55.03873         0.29092
C         42.69512        57.14827         0.46858
C         41.48266        56.44567         0.27257
C         42.76926        58.64745         0.71563
C         41.43484        59.36633         0.58650
C         42.72998        61.46984         0.13166
C         41.44545        60.82385         0.27985
C         45.22343        33.18690        -1.66034
C         43.99454        33.87141        -1.59744
C         45.23112        36.04356        -1.56304
C         43.94403        35.26358        -1.43198
C         45.23366        37.35390        -0.82240
C         43.93492        37.88483        -0.26293
C         45.18246        39.97134         0.44990
C         43.92859        39.37706        -0.11376
C         45.15321        41.48343         0.51939
C         43.89781        42.18798         0.50921
C         45.16695        44.37560         0.45270
C         43.88637        43.60840         0.66140
C         45.20576        45.65794         1.30313
C         43.90102        46.42361         1.21093
C         45.21626        48.56362         1.16566
C         43.94788        47.87032         1.61337
C         45.23680        50.02277         1.17765
C         43.93502        50.77004         1.27338
C         45.16170        52.92450         0.60679
C         43.89357        52.11890         0.55926
C         45.17054        54.28962         0.45905
C         43.91557        55.04288         0.45572
C         45.21532        57.18971         0.73597
C         43.91580        56.44994         0.49807
C         45.20929        58.59865         0.18297
C         43.88961        59.26803        -0.12117
C         45.18411        61.43063        -0.11764
C         43.92947        60.77694         0.01665
C         46.44232        33.84301        -1.51802
C         47.68095        35.93699        -1.09766
C         46.49894        35.25145        -1.34375
C         47.69479        37.34341        -0.80132
C         46.40754        38.01950        -0.63375
C         47.67849        40.03101         0.21455
C         46.39964        39.50741        -0.36557
C         47.62107        41.36709         0.79220
C         46.36513        42.15119         0.67338
C         47.65015        44.26300         0.70653
C         46.43542        43.57975         0.67340
C         47.64691        45.73714         0.37200
C         46.41489        46.45968         0.87773
C         47.62553        48.55277         0.30967
C         46.39263        47.85038         0.86756
C         47.62034        50.04284         0.51539
C         46.43517        50.71479         0.65666
C         47.61593        52.85067        -0.09725
C         46.36010        52.13411         0.29836
C         47.65262        54.31895         0.07274
C         46.42375        55.02239         0.26457
C         47.65991        57.12775         0.14016
C         46.44064        56.41888         0.31564
C         47.66277        58.55766         0.05204
C         46.39400        59.27299         0.01917
C         47.64762        61.38646        -0.27106
C         46.40035        60.72328        -0.17407
C         48.87453        38.01589        -0.50622
C         50.13684        40.05353         0.20684
C         48.89477        39.36770         0.00645
C         50.19207        41.42200         0.49967
C         48.95458        42.12503         0.89473
C         50.12527        44.29138         0.73029
C         48.91210        43.59099         0.78396
C         50.11586        45.72917         0.82963
C         48.93488        46.44747         0.72873
C         50.10541        48.60585         0.72024
C         48.93048        47.88756         0.70299
C         50.12977        50.10973         0.78926
C         48.86169        50.76559         0.30946
C         50.11129        52.83499        -0.38293
C         48.87110        52.09490         0.01359
C         50.16586        54.21949         0.27298
C         48.87513        54.99190         0.08806
C         50.12547        57.12248        -0.11408
C         48.89225        56.41165         0.06801
C         50.09608        58.51393        -0.26326
C         48.87305        59.23759        -0.16268
C         50.11043        61.38366        -0.30204
C         48.87433        60.69441        -0.27015
C         51.38561        42.18223         0.44072
C         52.60887        44.31435         0.59926
C         51.39196        43.58386         0.62538
C         52.66199        45.71478         0.77032
C         51.39555        46.42764         1.05057
C         52.64912        48.64478         0.63818
C         51.39149        47.94164         0.97324
C         52.64426        50.00430         0.32986
C         51.39056        50.75462         0.24588
C         52.63614        52.77136        -0.59150
C         51.38315        52.05482        -0.15761
C         52.61749        54.26130        -0.28144
C         51.40643        54.97624        -0.14273
C         52.60977        57.09869        -0.33692
C         51.37951        56.38326        -0.21032
C         52.61343        58.51893        -0.42009
C         51.32870        59.23898        -0.73886
C         52.57257        61.37555        -0.32609
C         51.34595        60.70900        -0.38422
C         53.84853        46.45692         0.69368
C         55.09436        48.58408         0.50033
C         53.88021        47.89037         0.64166
C         55.12999        49.99195         0.29952
C         53.88677        50.70465         0.13482
C         55.10984        52.80922        -0.14922
C         53.89872        52.08299        -0.14434
C         55.10080        54.23673        -0.27492
C         53.84649        54.95490        -0.31172
C         55.07458        57.09825        -0.31170
C         53.84520        56.38291        -0.30435
C         55.06484        58.52007        -0.32610
C         53.82012        59.22814        -0.38757
C         55.04361        61.36219        -0.34081
C         53.82064        60.68098        -0.37507
C         56.34284        50.70666         0.21187
C         57.56946        52.84532        -0.00387
C         56.35869        52.10931         0.02791
C         57.57306        54.24679        -0.13586
C         56.31843        54.95415        -0.23949
C         57.53828        57.10194        -0.25296
C         56.31709        56.38443        -0.27710
C         57.53097        58.53111        -0.26928
C         56.29315        59.23831        -0.30538
C         57.52571        61.35904        -0.27988
C         56.28446        60.66974        -0.31810
C         58.78620        54.99041        -0.13858
C         60.00708        57.14282        -0.21232
C         58.78829        56.38919        -0.20167
C         60.00289        58.52654        -0.23542
C         58.75752        59.25338        -0.23956
C         60.02352        61.46490        -0.13787
C         58.73724        60.67588        -0.23479
C         61.24559        59.28362        -0.30310
C         61.26062        60.63054        -0.29904
O         40.61555        58.86483         1.71307
O         47.53194        48.39786        -1.11036
O         38.50789        60.18604         1.22542
O         51.44384        47.23895         2.27670
O         46.71241        52.36869        -1.15721
O         42.03046        53.02917         2.18800
O         37.84182        50.41972         2.33172
O         44.74015        50.65464         2.47852
O         48.30898        41.55377         2.07188
O         38.50016        47.07858         2.40140
O         51.23370        59.20948        -2.21430
H         52.03274        59.65869        -2.56377
O         45.09414        44.75864        -0.94648
H         45.98234        45.11911        -1.22586
O         40.08648        51.91662        -0.79467
H         39.14030        51.72864        -1.02217
O         60.02387        62.55043        -1.08053
H         59.99156        62.16882        -1.98143
O         44.07519        47.88113         3.09037
H         44.16063        48.83100         3.35164
O         43.15806        58.84462         2.10585
H         42.34329        58.70487         2.64289
O         39.09279        52.86582         2.55121
H         38.51050        52.35511         3.15419
O         45.35888        39.46406         1.81715
H         44.58120        39.78627         2.33081
O         52.67037        52.71171        -2.06092
H         51.76980        52.99120        -2.36353
O         46.24383        40.15206        -1.67068
H         47.01126        39.90090        -2.22633
O         45.37501        45.28757         2.69868
H         45.07792        46.05692         3.23938
O         35.68315        52.84885        -1.66448
H         34.97239        53.28117        -2.18406
O         43.71365        51.77607        -0.85764
H         44.59617        51.76450        -1.29357
O         37.26294        50.86466        -1.20546
H         36.69197        51.40940        -1.80463
O         45.25779        36.42126        -2.99258
H         46.10807        36.88347        -3.15366
O         47.57258        45.78632        -1.10112
H         47.58506        46.78065        -1.34031
O         35.81983        52.16860         1.94576
H         36.42419        51.60202         2.48495
O         40.24905        45.26684         2.76912
H         39.76561        45.97278         3.26299
O         40.39223        57.28097        -1.63453
H         40.45089        56.35211        -1.96720
O         43.89069        37.31443         1.11621
H         44.64676        37.73862         1.59985
O         43.56530        58.97331        -1.51185
H         44.27103        59.35620        -2.07416
O         41.41540        50.80919         3.08119
H         41.85961        51.65246         3.34298
O         50.14357        50.39452         2.23466
H         50.80223        49.79713         2.65077
O         42.47738        39.57502         1.73753
H         42.58820        38.58994         1.74303
O         49.98355        53.08400        -1.82273
H         49.46608        52.34870        -2.21643
O         38.05332        58.58682        -2.01704
H         38.90057        58.08080        -2.14424
O         40.22897        54.28694        -1.53283
H         40.40861        53.35365        -1.81629
O         45.36231        57.32697         2.18909
H         44.61202        57.90526         2.48723
O         37.65598        62.87917        -0.27057
H         37.56171        62.85474         0.70426
O         50.29368        53.97695         1.70232
H         50.28274        54.84160         2.16325
H         29.37649        56.66736        -0.20298
H         28.14580        58.82392        -0.24481
H         30.30618        62.56766        -0.39814
H         28.16199        61.30859        -0.33190
H         31.82909        52.36784        -0.11517
H         30.60698        54.51852        -0.19356
H         32.79054        62.57344        -0.45327
H         34.39419        48.07887        -0.15412
H         33.11314        50.19028        -0.15570
H         35.28268        62.56154        -0.56191
H         36.92787        43.88516        -0.29353
H         35.70996        45.97971        -0.27513
H         38.00615        61.58142        -1.82907
H         39.39973        39.74815        -1.00540
H         38.13605        41.80956        -0.50414
H         40.32657        62.55472        -0.30123
H         41.78906        35.45411        -1.54058
H         40.62192        37.66251        -1.39840
H         42.74162        62.56936         0.06226
H         45.21495        32.09337        -1.77351
H         43.05698        33.29590        -1.61332
H         45.20832        62.53164        -0.12621
H         47.37679        33.26268        -1.49460
H         48.63018        35.38120        -1.04416
H         47.65791        62.48474        -0.34835
H         49.83355        37.48620        -0.61011
H         51.07027        39.52078        -0.02989
H         50.10587        62.48335        -0.23846
H         52.33719        41.66633         0.24184
H         53.54729        43.76389         0.43018
H         52.58537        62.46820        -0.18921
H         54.80119        45.91842         0.57014
H         56.04238        48.02657         0.54178
H         55.04763        62.46256        -0.32296
H         57.29649        50.16690         0.31330
H         58.52591        52.31149         0.10217
H         57.53053        62.45906        -0.28472
H         59.74298        54.45033        -0.07659
H         60.96527        56.60159        -0.20594
H         60.06541        61.94649         0.88156
H         62.18609        58.71788        -0.38863
H         62.21513        61.17213        -0.37952
