         598
 CSIRO Nanostructure Databank - Neutral Graphene Oxide Data Set
C         23.39138        69.52371         2.51696
C         23.46262        70.80844         3.10770
C         22.56284        71.24737         4.09162
C         23.84893        73.29228         4.50181
C         22.74519        72.48312         4.74323
C         25.51218        65.54536         0.54728
C         25.50699        66.94276         0.79830
C         24.42561        67.57379         1.40672
C         25.66990        69.69784         1.57737
C         24.44567        68.95959         1.77137
C         25.73496        71.11700         1.94699
C         24.55369        71.72246         2.72960
C         26.02279        73.62307         3.35411
C         24.82982        72.92201         3.53980
C         27.81796        61.33930        -0.47144
C         27.78838        62.73475        -0.52804
C         26.65017        63.45962        -0.10776
C         27.83996        65.64236        -0.31445
C         26.61497        64.86458         0.00860
C         27.96553        67.00409         0.26845
C         26.68621        67.77539         0.36281
C         28.08881        69.72380         1.14832
C         26.81729        69.07478         1.09489
C         28.18993        71.07009         1.64264
C         27.03622        71.76757         2.06648
C         28.38929        73.73291         2.61633
C         27.13530        73.07344         2.63933
C         30.21146        57.02766        -0.38705
C         30.17977        58.40397        -0.63793
C         29.00251        59.18594        -0.60100
C         30.22480        61.31027        -1.02475
C         28.99874        60.59000        -0.75749
C         30.26853        62.70068        -1.03707
C         28.96152        63.44540        -1.18618
C         30.38067        65.51542        -0.50077
C         29.05771        64.92412        -0.79980
C         30.41596        66.69305         0.45834
C         29.18336        67.59099         0.44196
C         30.51437        69.66820         0.87491
C         29.27752        69.00146         0.82467
C         30.60382        71.04361         1.22460
C         29.45253        71.73454         1.65781
C         30.79742        73.76780         2.04670
C         29.54704        73.10530         2.10290
C         32.69331        52.76141        -0.19122
C         32.69759        54.16158        -0.25952
C         31.47692        54.90776        -0.24913
C         32.69376        57.05031        -0.33763
C         31.44048        56.30267        -0.34952
C         32.71250        58.39462        -0.60922
C         31.45502        59.06440        -0.99872
C         32.75462        61.28879        -1.17006
C         31.47271        60.55590        -1.22046
C         32.74082        62.71234        -1.21215
C         31.50987        63.41297        -1.11613
C         32.84746        65.50029        -0.70465
C         31.54469        64.83015        -0.80220
C         32.89413        66.80824        -0.25349
C         31.73297        67.45094         0.39253
C         32.95291        69.71710         0.18101
C         31.77493        68.93241         0.62567
C         32.94395        71.12569         0.50417
C         31.86693        71.74347         1.12389
C         33.17930        73.84048         1.43622
C         31.96947        73.13627         1.54691
C         34.86579        48.33645         0.49695
C         34.64412        49.53193        -0.13752
C         33.68265        50.58705         0.04081
C         35.15864        52.68022        -0.42259
C         33.87381        51.96482        -0.23438
C         35.17263        54.15445        -0.38060
C         33.96015        54.85099        -0.27016
C         35.25133        57.06647        -0.02555
C         33.94039        56.30792        -0.03697
C         35.25678        58.54980        -0.24084
C         33.93687        59.21904        -0.51391
C         35.21539        61.28044        -1.19492
C         33.95926        60.60382        -1.03186
C         35.21113        62.65595        -1.45321
C         34.00086        63.40303        -1.30031
C         35.32929        65.47836        -1.17051
C         34.05044        64.80415        -1.10621
C         35.39082        66.90546        -0.75781
C         34.15401        67.57177        -0.25115
C         35.28246        69.79141        -0.63618
C         34.08832        69.05049        -0.27567
C         34.85617        71.21735        -0.87659
C         34.23526        71.85034         0.34544
C         35.60674        74.09338         0.63782
C         34.41079        73.25910         0.90325
C         37.46409        44.09185        -0.02795
C         37.53183        45.54372        -0.01278
C         36.33174        46.22636         0.19147
C         37.52851        48.44461         0.40450
C         36.22087        47.66858         0.46937
C         37.57651        49.92203         0.17960
C         36.55938        50.58669        -0.44594
C         37.66752        52.73624        -0.48132
C         36.38161        52.02145        -0.43559
C         37.69748        54.22208        -0.57430
C         36.40989        54.91547        -0.44077
C         37.71558        57.04006        -0.36193
C         36.47818        56.30931        -0.31487
C         37.73617        58.46684        -0.53474
C         36.50174        59.21925        -0.68893
C         37.72211        61.26215        -1.38210
C         36.47635        60.55155        -1.09220
C         37.74075        62.60774        -1.67906
C         36.44551        63.36208        -1.96065
C         37.74436        65.56727        -1.78849
C         36.48647        64.81977        -1.52712
C         37.79760        67.05701        -1.58618
C         36.52845        67.76197        -1.22282
C         37.81346        69.91332        -0.72795
C         36.50420        69.20983        -0.87693
C         37.94147        71.39033        -0.47245
C         36.94984        72.47218        -0.84952
C         38.08975        74.19366         0.28310
C         36.81162        73.59990         0.13847
C         40.23001        40.02331        -0.93230
C         40.13102        41.39697        -0.66313
C         38.81271        41.91994        -0.36146
C         40.28799        44.38064        -0.59011
C         38.45463        43.26111        -0.57095
C         40.09879        45.66828        -0.06300
C         38.80101        46.29825        -0.01543
C         40.02592        48.39518         0.32197
C         38.79740        47.69352         0.18703
C         40.08442        49.87597         0.42434
C         38.81956        50.65556         0.49200
C         40.12734        52.74647        -0.25225
C         38.83545        52.15979         0.29181
C         40.16459        54.22187        -0.15978
C         38.96080        54.92895        -0.25368
C         40.21121        57.03606        -0.19577
C         38.96197        56.34509        -0.26991
C         40.21868        58.47865        -0.36023
C         38.96042        59.14076        -0.62207
C         40.30335        61.18760        -1.33854
C         38.98039        60.48686        -1.23316
C         40.33358        62.63656        -1.70798
C         39.02183        63.32992        -1.93889
C         40.37782        65.60071        -1.93605
C         39.03242        64.83793        -1.99307
C         40.26607        66.98447        -1.28115
C         39.10187        67.69541        -1.27640
C         40.37761        69.92047        -0.96776
C         39.08029        69.18860        -1.11654
C         40.43703        71.35506        -0.58264
C         39.26411        72.08660        -0.44026
C         40.53378        74.13699        -0.15766
C         39.28236        73.49291        -0.11570
C         42.88006        36.05516        -2.27395
C         42.79373        37.42834        -1.86707
C         41.55328        38.04659        -1.61789
C         42.67949        40.07572        -0.79084
C         41.47778        39.37565        -1.13770
C         42.61508        41.46141        -0.41592
C         41.37515        42.15382        -0.52878
C         42.57285        44.23624         0.19000
C         41.40992        43.57270        -0.31935
C         42.49428        45.60025         0.53750
C         41.28054        46.32021         0.41468
C         42.46083        48.47731         0.83223
C         41.24628        47.73766         0.55394
C         42.54897        49.83052         0.53589
C         41.36967        50.44799        -0.16382
C         42.65567        52.71266         0.02358
C         41.40796        51.97113        -0.26734
C         42.65046        54.12941        -0.03536
C         41.41868        54.88253        -0.12624
C         42.69752        57.00605         0.06704
C         41.41593        56.30476        -0.09855
C         42.69374        58.52782        -0.04670
C         41.42036        59.18710        -0.34685
C         42.74988        61.30806        -0.85844
C         41.42832        60.68862        -0.45732
C         42.78907        62.65614        -1.17504
C         41.55893        63.41455        -1.37734
C         42.80711        65.50497        -1.24538
C         41.55253        64.78903        -1.41041
C         42.82824        66.91016        -1.07131
C         41.54949        67.62720        -0.86100
C         42.91683        69.83245        -0.72950
C         41.61395        69.12404        -0.69338
C         42.93973        71.25978        -0.66991
C         41.70318        71.99589        -0.54931
C         42.93951        74.09254        -0.72129
C         41.72279        73.42126        -0.43780
C         45.43572        33.33855        -2.61447
C         44.19178        33.97963        -2.57944
C         45.36120        36.15008        -2.38891
C         44.09695        35.38458        -2.41473
C         45.30240        37.59423        -1.91481
C         43.98925        38.15550        -1.55466
C         45.14641        39.99948        -0.35426
C         43.92334        39.40678        -0.93803
C         45.06880        41.41675         0.16742
C         43.80933        42.16171        -0.01454
C         45.02476        44.23238         0.71446
C         43.81097        43.52407         0.30082
C         44.97170        45.56224         1.08095
C         43.67015        46.24256         1.14703
C         44.91359        48.49618         1.44942
C         43.64143        47.75858         1.33523
C         44.88719        49.88649         1.25340
C         43.74271        50.58029         0.74281
C         45.02324        52.70451         0.73383
C         43.79829        51.98499         0.47648
C         45.15802        54.09088         0.20387
C         43.90542        54.85348        -0.03814
C         45.21463        56.96636        -0.33154
C         43.94487        56.23046        -0.08950
C         45.20312        58.44936        -0.50417
C         43.94336        59.22277        -0.41560
C         45.25003        61.10502        -1.37478
C         43.96122        60.53596        -0.80412
C         45.25650        62.61746        -1.44533
C         44.07284        63.32960        -1.37275
C         45.22941        65.50252        -1.46535
C         44.02240        64.78842        -1.37535
C         45.25456        66.89249        -1.24152
C         44.05704        67.61284        -0.98889
C         45.34260        69.76334        -0.72303
C         44.10478        69.06872        -0.80049
C         45.37794        71.17622        -0.64076
C         44.18396        71.96681        -0.69464
C         45.23716        74.20426        -1.44339
C         44.15511        73.41923        -0.89895
C         46.63727        34.03021        -2.44340
C         47.81150        36.16204        -1.99079
C         46.65152        35.43976        -2.26725
C         47.78202        37.52994        -1.55094
C         46.53163        38.19622        -1.37808
C         47.64395        40.07187        -0.27700
C         46.46914        39.42123        -0.69157
C         47.57001        41.37119         0.42285
C         46.32114        42.15927         0.40590
C         47.52351        44.25318         0.96655
C         46.30406        43.51342         0.72290
C         47.47902        45.65914         1.27873
C         46.15995        46.26402         1.72185
C         47.34717        48.49910         1.81264
C         46.14693        47.79412         1.65030
C         47.33064        49.94995         2.06789
C         46.02832        50.68080         1.69476
C         47.27580        52.85552         1.79838
C         46.12017        52.07876         1.28184
C         47.32034        54.33222         1.54294
C         46.42210        54.86969         0.46280
C         47.46815        57.22440         0.81647
C         46.57975        56.32298        -0.02418
C         47.55466        58.56764         0.42225
C         46.45474        59.22344        -0.26605
C         47.67930        61.36069        -0.47845
C         46.47895        60.55357        -0.63861
C         47.77913        62.66443        -1.02336
C         46.60091        63.21024        -1.88080
C         47.60495        65.62700        -2.15275
C         46.35984        64.80855        -2.18039
C         47.75094        66.89855        -1.68352
C         46.56874        67.55930        -1.07679
C         47.98068        69.73756        -0.77051
C         46.62393        69.01139        -0.70003
C         47.86389        71.23992        -0.98946
C         46.67380        71.80585        -0.55088
C         47.76936        74.19109        -1.86679
C         46.57983        73.88866        -1.20307
C         48.95896        38.20595        -1.16503
C         50.12365        40.23912        -0.38246
C         48.91491        39.49142        -0.58099
C         50.12062        41.56222         0.05338
C         48.86833        42.15519         0.56888
C         49.98124        44.33946         0.75512
C         48.78718        43.61708         0.74668
C         49.98356        45.73189         1.31695
C         48.64058        46.41905         1.31068
C         49.80518        48.58226         1.63022
C         48.62659        47.84135         1.60390
C         49.83107        49.97496         2.13654
C         48.57707        50.76354         2.07198
C         49.81077        52.92659         2.01945
C         48.56134        52.14304         2.06486
C         49.84171        54.28523         1.79740
C         48.56763        55.09901         2.02152
C         49.86115        57.35544         1.61375
C         48.55436        56.59815         1.59950
C         49.93321        58.72618         1.07334
C         48.75802        59.35952         0.60897
C         50.04096        61.42526         0.32895
C         48.81718        60.71913         0.15878
C         50.10787        62.78381        -0.12254
C         49.04783        63.33959        -0.90741
C         50.32724        65.46951        -1.06000
C         49.36736        64.57839        -1.55322
C         50.35589        66.90939        -1.45800
C         49.05075        67.62721        -1.79025
C         50.27779        69.86481        -1.52029
C         48.96352        69.15442        -1.79867
C         50.25209        71.32600        -1.52332
C         49.01365        72.02205        -1.34816
C         50.20212        74.11174        -1.95021
C         48.99205        73.44956        -1.66571
C         51.28169        42.37551         0.03881
C         52.43802        44.52194         0.40130
C         51.23992        43.72887         0.41818
C         52.42372        45.89968         0.58832
C         51.11039        46.57223         0.76499
C         52.34596        48.76142         1.22484
C         51.06433        48.03236         1.08044
C         52.37595        50.02805         1.74743
C         51.13706        50.69849         2.24557
C         52.38811        52.95897         2.33532
C         51.08803        52.20728         2.33281
C         52.41243        54.38879         1.94547
C         51.11997        55.03077         1.62834
C         52.37220        57.27162         1.78842
C         51.12592        56.55719         1.56316
C         52.33278        58.73519         1.83474
C         51.15207        59.42445         1.23606
C         52.46654        61.49368         0.97605
C         51.20229        60.78758         0.88890
C         52.47708        62.90112         0.62171
C         51.27811        63.55903         0.13864
C         52.43501        65.78511         0.18691
C         51.29443        64.93760        -0.17614
C         52.54649        67.16932        -0.32896
C         51.49826        67.74906        -0.99207
C         52.63151        70.00416        -0.91685
C         51.42751        69.19457        -1.18972
C         52.71432        71.38521        -1.44953
C         51.46335        72.05409        -1.62371
C         52.69700        74.18069        -1.81207
C         51.46931        73.48076        -1.81365
C         53.58748        46.70429         0.54280
C         54.80765        48.79769         0.87085
C         53.58494        48.07634         0.85228
C         54.88955        50.11287         1.34790
C         53.67044        50.71417         1.93195
C         54.90558        52.96116         1.91699
C         53.68137        52.19714         2.22654
C         54.86745        54.34246         1.93128
C         53.61240        55.07103         1.90423
C         54.94250        57.31503         1.87437
C         53.64219        56.55014         1.70689
C         54.97995        58.79705         2.04168
C         53.65469        59.49859         1.94613
C         54.94840        61.50546         1.29764
C         53.63619        60.85684         1.39159
C         54.93434        62.96038         0.95864
C         53.66090        63.60774         0.67879
C         55.01075        65.65425         0.12001
C         53.70267        65.06201         0.54680
C         55.07761        67.11599        -0.22032
C         53.81224        67.90683         0.09255
C         55.16981        69.90192        -0.89933
C         53.86325        69.33571        -0.43272
C         55.18853        71.36993        -1.20072
C         53.90403        72.08983        -1.35717
C         55.13890        74.22390        -1.29717
C         53.93948        73.52991        -1.52166
C         56.08678        50.85717         1.35065
C         57.34888        52.96429         1.54423
C         56.13907        52.23899         1.65876
C         57.40777        54.35703         1.75552
C         56.15043        55.06112         2.11166
C         57.48938        57.26546         2.22233
C         56.16705        56.54251         2.26371
C         57.50400        58.76569         2.28071
C         56.17246        59.48667         2.16063
C         57.10977        61.81812         2.43290
C         56.12569        60.95474         2.03923
C         57.07883        63.33682         2.33173
C         56.07840        63.81726         1.32663
C         57.52050        65.65062         0.54557
C         56.20615        65.01200         0.69122
C         57.60791        67.10483         0.10929
C         56.35578        67.82430        -0.05422
C         57.67677        69.98089        -0.25619
C         56.43982        69.21306        -0.49113
C         57.66327        71.38439        -0.43741
C         56.45743        72.10929        -0.93681
C         57.66784        74.25120        -0.83566
C         56.33556        73.58571        -0.62255
C         58.57007        55.10213         1.51742
C         59.76689        57.21651         1.21806
C         58.64882        56.51953         1.65336
C         59.89758        58.64243         1.35028
C         58.81951        59.40723         1.92424
C         60.30868        61.38299         1.95171
C         59.12508        60.69442         2.34212
C         60.42810        62.80024         2.07354
C         58.43306        63.98929         2.09198
C         59.96082        65.68771         0.93155
C         58.64596        65.06768         1.29791
C         59.97099        67.18513         0.80994
C         58.85132        67.86253         0.41197
C         60.04962        70.04118         0.37131
C         58.84007        69.31343         0.21160
C         60.06236        71.44692         0.06111
C         58.84937        72.12437        -0.28837
C         60.11845        74.20753        -0.63059
C         58.85521        73.55520        -0.58441
C         61.10294        59.28008         1.00009
C         62.45437        61.38843         0.76437
C         61.30841        60.67286         1.20886
C         62.51409        62.80080         0.83868
C         61.39358        63.52184         1.39626
C         62.51427        65.73697         0.86018
C         61.25995        64.95769         1.01073
C         62.50277        67.12712         0.83422
C         61.24270        67.91437         1.17223
C         62.49931        70.01784         0.64372
C         61.27631        69.35084         0.67436
C         62.50947        71.50069         0.54342
C         61.27757        72.16701         0.09929
C         62.57808        74.17137        -0.51416
C         61.31463        73.53644        -0.30515
C         63.65384        63.55770         0.45106
C         64.90087        65.68866         0.33992
C         63.70647        64.97845         0.56039
C         64.93396        67.10382         0.39205
C         63.71963        67.84595         0.61532
C         64.97855        69.95333         0.41463
C         63.74040        69.27192         0.60251
C         65.05097        71.37761         0.42078
C         63.84129        72.25493         0.45146
C         64.95987        74.20259        -0.86385
C         63.81550        73.57731        -0.26602
C         66.15089        67.79954         0.21896
C         67.44429        69.87590         0.02691
C         66.20537        69.20596         0.24842
C         67.51818        71.27226         0.07260
C         66.31431        71.95399         0.42321
C         67.48491        74.08381        -1.20220
C         66.28087        73.91983        -0.49468
C         68.67321        72.03484        -0.33803
C         68.63081        73.29092        -0.93179
O         24.70024        71.93319         1.29566
O         34.91296        71.99714         1.59579
O         55.86677        69.16051        -1.92261
O         36.95641        48.06286         1.71088
O         66.41489        73.29921         0.76891
O         41.45707        68.24658         0.47784
O         39.82815        62.83259        -3.06435
O         55.01568        66.09757        -1.27275
O         54.48724        56.95721         0.51909
O         55.32190        61.94493        -0.06404
O         46.39322        50.39960         3.08612
O         43.39117        46.84963         2.46954
O         58.20973        61.36951         3.16728
O         45.39808        37.25890        -3.34623
O         52.79398        59.31758         3.12115
O         60.50396        65.05173        -0.28899
O         28.23001        65.71546        -1.74398
O         53.87869        51.23098         3.29649
O         45.21672        57.55626        -1.68214
O         46.72568        73.08842        -0.03916
O         59.47503        63.46907         2.86540
O         34.51939        71.55286        -1.99592
O         31.43960        59.61005        -2.36561
O         38.25912        65.27116        -3.16476
O         39.76532        69.77318        -2.29386
O         51.16048        55.72111         0.32059
O         32.09521        67.98374         1.72839
O         40.69881        52.32311        -1.52493
O         53.09682        70.15106         0.51113
O         48.29290        41.41616         1.69824
O         52.90229        65.71224         1.58226
O         36.94632        67.66602        -2.62623
O         46.65909        53.83006         2.74333
O         57.80845        65.98363        -0.84202
O         37.81018        70.48619         0.65848
O         36.71340        72.67924        -2.02609
O         42.73940        57.86808         1.27770
O         45.95409        64.89855        -3.53204
O         39.87353        60.36483        -2.43534
O         46.27823        54.05663        -0.75851
O         37.91111        53.35223        -1.77290
O         56.11238        71.73019        -2.29593
O         44.96169        40.25339         1.08120
O         39.57523        50.33466         1.72066
O         39.32835        43.91554        -1.47662
O         26.31296        68.15459        -1.08423
O         35.60654        49.83598        -1.12791
O         50.80229        47.50105        -0.30370
O         63.11870        72.19552         1.71048
O         51.66964        52.71272         3.58571
O         49.95075        67.17848        -2.84331
O         48.68341        64.95091        -2.71856
O         34.60931        56.67359         1.22662
O         50.55483        50.06436         3.43081
O         48.99842        57.35541         2.78407
O         34.55576        59.23913         0.84008
O         56.08924        55.71381         3.45709
O         57.69714        57.96130         3.49827
O         35.18862        67.05786         0.69197
O         46.70119        67.97824         0.35400
O         28.69018        63.38230        -2.61510
H         28.20208        64.21041        -2.84233
O         27.36044        69.00594        -1.58827
H         26.92522        69.89224        -1.63061
O         46.04390        45.95216         3.14817
H         45.14655        46.25485         3.42561
O         41.09940        61.19879         0.88070
H         41.72984        60.80207         1.51951
O         47.33332        56.25475        -1.25647
H         46.85406        55.64594        -1.86199
O         38.68439        52.74541         1.61618
H         39.06692        52.10912         2.26528
O         50.33190        45.57635         2.73881
H         49.60988        45.07385         3.17424
O         30.37338        66.03792         1.76833
H         30.95165        66.57245         2.36383
O         56.05410        73.64013         0.82835
H         56.05102        74.58248         1.09920
O         36.30457        63.37200        -3.41632
H         37.04014        63.93187        -3.76873
O         48.48135        69.52741        -3.10602
H         48.96336        68.97789        -3.76268
O         41.42667        49.91247        -1.51647
H         41.08251        50.61251        -2.12106
O         48.61741        69.60669         0.52235
H         48.10511        68.93698         1.03647
O         46.89597        62.66757        -3.18524
H         46.56019        63.37729        -3.82216
O         48.54578        55.09949         3.46434
H         47.74603        55.57246         3.77538
O         56.61848        63.80640         3.64157
H         57.25621        63.46676         4.30666
O         45.30622        60.60248        -2.73463
H         45.97647        61.16147        -3.21147
O         53.87271        68.01626         1.53355
H         53.22022        68.70497         1.79916
O         61.21846        68.01659         2.64133
H         61.96413        68.59452         2.91162
O         40.75682        65.90644        -3.29932
H         39.92556        65.97272        -3.82565
H         23.98912        74.21701         5.07972
H         26.17610        74.56500         3.90251
H         28.46744        74.75038         3.02768
H         30.86191        74.81151         2.38912
H         33.17513        74.92096         1.64729
H         35.62861        75.06506         1.16013
H         38.19314        75.17990         0.76173
H         40.59055        75.22423        -0.00239
H         42.92250        75.18791        -0.82224
H         44.97220        75.09103        -2.03876
H         47.78409        75.01260        -2.59834
H         50.16755        75.18455        -2.19131
H         52.68698        75.27402        -1.93704
H         55.13676        75.32200        -1.39500
H         57.71135        75.32759        -1.06391
H         60.16302        75.26617        -0.92633
H         62.56813        75.16502        -0.98754
H         64.77608        74.91583        -1.68215
H         67.53122        74.79768        -2.03757
H         22.52491        68.88852         2.75718
H         21.71524        70.60627         4.37322
H         22.01343        72.79103         5.50331
H         24.62021        64.96367         0.82855
H         23.54461        66.97457         1.68397
H         26.92730        60.79739        -0.11609
H         25.76396        62.89055         0.21652
H         29.26909        56.48351        -0.22315
H         28.05122        58.68678        -0.36043
H         31.72504        52.24772        -0.09120
H         30.52859        54.35085        -0.21616
H         34.15519        47.96219         1.24927
H         32.68901        50.30648         0.42645
H         36.60031        43.63029         0.47424
H         35.39562        45.64766         0.15043
H         39.30690        39.43765        -1.05616
H         38.07628        41.21525         0.05392
H         41.94380        35.48483        -2.37280
H         40.62296        37.49805        -1.82691
H         45.46521        32.24690        -2.73952
H         43.26996        33.38516        -2.65558
H         47.58706        33.47705        -2.41526
H         48.77883        35.63696        -1.98391
H         49.93526        37.72841        -1.33540
H         51.07350        39.78408        -0.70115
H         52.23534        41.93784        -0.29180
H         53.39414        44.01530         0.20086
H         54.55286        46.21957         0.33167
H         55.72153        48.29683         0.51766
H         57.01294        50.36143         1.02249
H         58.26792        52.42675         1.26683
H         59.46806        54.57143         1.16511
H         60.61306        56.65597         0.79273
H         61.90409        58.68361         0.53969
H         63.28444        60.83942         0.29622
H         64.55360        63.02629         0.10613
H         65.83025        65.13995         0.12712
H         67.07811        67.22840         0.06354
H         68.33379        69.28025        -0.22512
H         69.63412        71.49817        -0.37209
H         69.57222        73.63518        -1.39038
