         671
 CSIRO Nanostructure Databank - Neutral Graphene Oxide Data Set
C          6.14282        31.74675         1.11668
C          6.17254        33.10625         1.19006
C          8.45332        27.43514         0.37353
C          8.46278        28.84514         0.41043
C          7.29924        29.59412         0.74015
C          8.55946        31.68997         0.54882
C          7.32539        30.98612         0.78652
C          8.58378        33.13680         0.59361
C          7.38008        33.85099         0.91735
C          8.56110        35.98848         0.65261
C          7.38919        35.24387         0.96309
C          8.57728        37.38563         0.74284
C         10.76356        23.06565        -0.45014
C         10.76610        24.56704        -0.24809
C          9.61536        25.27560         0.05231
C         10.81713        27.41050        -0.30298
C          9.61646        26.70644         0.06139
C         10.83651        28.82502        -0.28601
C          9.68620        29.55025         0.13400
C         11.05774        31.66067         0.26912
C          9.72205        30.96657         0.26242
C         10.97471        33.14579        -0.05473
C          9.75645        33.84917         0.25965
C         10.91171        36.00843        -0.11891
C          9.75944        35.28533         0.24538
C         10.93766        37.44788        -0.02507
C          9.74322        38.13445         0.44444
C         10.90660        40.29155         0.27779
C          9.74291        39.52965         0.55047
C         10.90612        41.67360         0.46279
C         13.38409        19.06959         1.08017
C         13.30457        20.43122         0.73115
C         12.09050        21.08075         0.40979
C         13.25773        23.11423        -0.30859
C         12.06819        22.40868        -0.05691
C         13.18017        24.47353        -0.97089
C         11.96961        25.26756        -0.54197
C         13.21386        27.35454        -1.05417
C         11.99979        26.66121        -0.62709
C         13.04786        28.77512        -1.55088
C         12.02325        29.55159        -0.72141
C         13.32623        31.64978        -0.83844
C         12.09313        30.90236        -0.53925
C         13.34845        33.13512        -0.73821
C         12.09213        33.85739        -0.44648
C         13.24464        35.99954        -0.93094
C         12.10837        35.30406        -0.52544
C         13.21221        37.50360        -1.11427
C         12.08340        38.17251        -0.35469
C         13.28974        40.32901        -0.34689
C         12.12511        39.60261        -0.15316
C         13.28042        41.84691        -0.40090
C         12.08172        42.46875         0.28638
C         13.34751        44.56790         0.86446
C         12.08783        43.78123         0.67123
C         13.35091        45.98436         0.35597
C         15.82948        14.78877         1.54230
C         15.82804        16.21913         1.39363
C         14.64024        16.94292         1.38313
C         15.84377        19.01633         0.87630
C         14.61242        18.35925         1.15510
C         15.87820        20.46928         0.72066
C         14.53966        21.23374         0.67160
C         15.74076        23.16618        -0.34516
C         14.52817        22.53917        -0.01628
C         15.69952        24.46990        -1.12963
C         14.46746        25.26020        -0.67062
C         15.66941        27.38609        -1.43716
C         14.41199        26.69465        -1.15079
C         15.66972        28.73969        -1.67271
C         14.39495        29.49730        -1.73878
C         15.76786        31.68788        -1.35571
C         14.46343        30.98357        -1.54486
C         15.74758        33.09391        -1.23168
C         14.44420        33.79332        -1.56613
C         15.78000        36.03892        -1.37253
C         14.46160        35.31242        -1.42149
C         15.73418        37.45811        -0.84416
C         14.56244        38.15995        -0.83947
C         15.81197        40.46292        -0.77032
C         14.52943        39.65558        -0.78066
C         15.82856        41.83016        -0.18855
C         14.59379        42.49108         0.02724
C         15.81590        44.53338         0.57631
C         14.59196        43.82851         0.44083
C         15.80300        45.98208         0.54546
C         14.55867        46.68354         0.31464
C         15.81685        48.78082         0.02409
C         14.61022        48.09594         0.05928
C         15.89476        50.27639        -0.22176
C         18.27415        10.50252         1.91290
C         18.24237        11.92153         1.76510
C         17.03700        12.64230         1.71330
C         18.30869        14.81233         1.76577
C         17.00845        14.05927         1.60966
C         18.29307        16.19823         1.17804
C         17.09382        16.89714         1.14488
C         18.26390        18.98145         0.46460
C         17.07205        18.30880         0.80798
C         18.23894        20.33004         0.00918
C         17.05249        21.08659         0.10655
C         18.16641        23.12076        -0.69973
C         16.99623        22.47383        -0.26172
C         18.23641        24.62119        -0.64152
C         16.95223        25.30354        -1.02846
C         18.19762        27.36841        -1.45811
C         16.93255        26.64125        -1.31357
C         18.20557        28.75276        -1.61356
C         16.94161        29.52220        -1.92490
C         18.22135        31.69693        -1.41735
C         16.93660        30.92282        -1.32942
C         18.19267        33.04247        -0.68470
C         16.89711        33.86697        -0.63295
C         18.30578        35.71726        -1.68147
C         17.02746        35.20343        -1.35552
C         18.22592        37.58424        -0.08532
C         17.03142        38.17948        -0.67863
C         18.33990        40.36794        -0.34302
C         17.10595        39.72106        -0.78591
C         18.35050        41.75107         0.09895
C         17.05531        42.45303         0.16890
C         18.26562        44.49646         0.99520
C         17.03199        43.80436         0.57301
C         18.27001        45.99859         0.85653
C         17.01727        46.69901         0.49769
C         18.33568        48.80807         0.03843
C         17.03368        48.08178         0.24910
C         18.32010        50.25569         0.48578
C         16.96657        50.89823         0.69431
C         18.20127        53.11649         0.83786
C         17.01074        52.39952         0.68388
C         18.18429        54.46036         1.23040
C         20.72178         6.20752         1.78210
C         20.68988         7.55343         1.98094
C         19.38296         8.28901         2.18016
C         20.72014        10.46146         1.81432
C         19.46119         9.78629         1.94862
C         20.72639        11.88006         1.61051
C         19.50546        12.61342         1.60527
C         20.73253        14.66303         1.06814
C         19.52668        14.00631         1.41086
C         20.70291        16.07255         0.70950
C         19.53854        16.81347         0.80173
C         20.61086        18.77166        -0.42819
C         19.61208        18.32242         0.65814
C         20.66608        20.28529        -0.51138
C         19.44932        20.95532        -0.48589
C         20.70436        23.08042        -1.23978
C         19.36214        22.34064        -0.95742
C         20.69533        24.54120        -1.28700
C         19.46943        25.25335        -1.24940
C         20.68159        27.31053        -1.98602
C         19.43376        26.63287        -1.47800
C         20.65332        28.79149        -1.71081
C         19.46638        29.46217        -1.57697
C         20.71165        31.69745        -1.32694
C         19.46630        30.87879        -1.03350
C         20.73038        33.02746        -1.07646
C         19.48396        33.76318        -0.74555
C         20.72636        35.92777        -0.82469
C         19.49562        35.20333        -1.05074
C         20.72577        37.35959        -0.22906
C         19.45844        38.16779        -0.39412
C         20.79326        40.24611        -0.16965
C         19.50993        39.60072        -0.40271
C         20.82739        41.56680         0.55883
C         19.53101        42.34924         0.48508
C         20.80282        44.53386         0.71977
C         19.57728        43.71888         1.13200
C         20.78988        45.91991         0.68542
C         19.56019        46.69689         0.68244
C         20.79167        48.81272         0.52407
C         19.56661        48.06165         0.47720
C         20.77385        50.23488         0.61367
C         19.49294        50.94290         0.60659
C         20.73381        53.12530         1.05664
C         19.51462        52.45474         0.46296
C         20.68034        54.41112         1.49214
C         19.39601        55.16477         1.74642
C         20.69172        57.26470         1.16782
C         19.48278        56.58451         1.25957
C         20.73057        58.66904         0.85718
C         23.12581         3.40520         0.99929
C         21.93605         4.08872         1.27652
C         23.19997         6.13541         1.61643
C         21.95769         5.46632         1.58446
C         23.26372         7.55357         1.98171
C         21.94640         8.31358         2.15366
C         23.19359        10.43400         1.73666
C         21.95792         9.76226         1.88850
C         23.20907        11.85535         1.56994
C         21.95710        12.58027         1.45894
C         23.26534        14.61069         0.75852
C         21.94896        13.95109         1.12272
C         23.23780        16.12038         0.78628
C         21.97631        16.71164         0.28423
C         23.18981        18.94643         0.04021
C         21.98229        18.11305        -0.21838
C         23.13153        20.30304        -0.19167
C         21.91698        20.98335        -0.61962
C         23.16614        23.11577        -0.97050
C         21.94555        22.37073        -0.90473
C         23.19990        24.48855        -1.22087
C         21.95289        25.23717        -1.35760
C         23.22711        27.34626        -1.44872
C         21.95558        26.61168        -1.54478
C         23.20910        28.82726        -1.57912
C         21.92574        29.53321        -1.85958
C         23.26087        31.71809        -1.50105
C         21.96522        31.01602        -1.69974
C         23.26645        33.09132        -1.21345
C         22.00486        33.73977        -0.70295
C         23.24270        35.92634        -0.61876
C         21.93719        35.24493        -0.81141
C         23.24575        37.43778        -0.54645
C         21.92103        38.13149        -0.82151
C         23.29435        40.21811        -0.11850
C         21.95040        39.57385        -0.38197
C         23.20505        41.73934        -0.15335
C         22.06279        42.37801         0.18792
C         23.29111        44.56273         0.16321
C         22.13119        43.79025         0.74894
C         23.21882        45.98158         0.23505
C         22.03163        46.65700         0.50718
C         23.22633        48.83778         0.58398
C         22.02436        48.10692         0.54693
C         23.22780        50.23000         0.80634
C         21.97935        50.93257         0.84562
C         23.17977        53.00100         1.37846
C         21.99870        52.36827         1.07722
C         23.18243        54.49876         1.34023
C         21.92632        55.14125         1.93460
C         23.16125        57.26654         1.43975
C         21.94037        56.59746         1.48371
C         23.25190        58.69819         0.97731
C         21.91595        59.40748         0.89869
C         23.19508        61.51027         0.87884
C         21.96215        60.80166         0.74543
C         24.34685         4.07140         0.98568
C         25.63652         6.17997         1.23858
C         24.40976         5.46113         1.27585
C         25.68841         7.59097         1.38948
C         24.47904         8.31062         1.66780
C         25.67792        10.43854         1.50933
C         24.45337         9.71976         1.67647
C         25.67432        11.86406         1.49713
C         24.42784        12.54817         1.53966
C         25.68976        14.73216         1.36385
C         24.38510        14.04503         1.63420
C         25.65384        16.23259         1.42070
C         24.37933        16.85846         0.86958
C         25.59017        19.00503         0.62759
C         24.40955        18.29110         0.53420
C         25.60466        20.46376         0.41257
C         24.28865        21.21377         0.17689
C         25.70839        23.09508        -0.85576
C         24.42957        22.28761        -0.92052
C         25.67750        24.49387        -1.17168
C         24.47262        25.18995        -1.32992
C         25.72011        27.32765        -1.64885
C         24.51409        26.61855        -1.52082
C         25.73828        28.78200        -1.96551
C         24.45638        29.56157        -1.96525
C         25.70112        31.71521        -1.67359
C         24.47297        31.02478        -1.71615
C         25.68146        33.12418        -1.54852
C         24.48458        33.81174        -1.26145
C         25.66668        35.99246        -1.10904
C         24.49688        35.24972        -1.00981
C         25.63064        37.45307        -1.09716
C         24.47668        38.15725        -0.91864
C         25.65914        40.41668        -1.08818
C         24.34796        39.65700        -1.11536
C         25.67457        41.74630        -0.79934
C         24.55353        42.41499        -0.02127
C         25.66886        44.63091        -0.51976
C         24.46478        43.91137        -0.21534
C         25.64767        46.10526        -0.55830
C         24.41154        46.78707        -0.09915
C         25.74511        48.90668         0.24603
C         24.52896        48.09658         0.62815
C         25.71011        50.31591         0.62533
C         24.48119        50.90705         0.98360
C         25.72383        53.04664         1.46408
C         24.45847        52.24508         1.66406
C         25.73316        54.43903         1.89514
C         24.39601        55.18169         1.92359
C         25.63603        57.36408         1.83794
C         24.39178        56.62886         1.76448
C         25.59792        58.75447         1.81736
C         24.27178        59.47380         1.81765
C         24.32845        60.90814         1.34931
C         26.89976         8.31335         1.27487
C         28.12710        10.46121         1.28394
C         26.91959         9.72528         1.36488
C         28.13630        11.87637         1.29416
C         26.89622        12.59345         1.37469
C         28.14566        14.75151         1.12966
C         26.88855        14.03565         1.30058
C         28.16121        16.14254         0.95906
C         26.86214        16.86696         0.68728
C         28.16303        18.99390         0.44332
C         26.91075        18.37300         1.04278
C         28.15108        20.29508        -0.02600
C         26.90502        21.09890        -0.00976
C         28.17881        22.98235        -1.22771
C         26.89543        22.41658        -0.66719
C         28.22213        24.49013        -1.05416
C         26.94146        25.25524        -1.09088
C         28.20834        27.36618        -1.59898
C         26.98071        26.67555        -1.48938
C         28.19684        28.80527        -1.75995
C         27.01105        29.52683        -1.83035
C         28.15488        31.67711        -1.53311
C         26.98031        30.98282        -1.73727
C         28.10348        33.13091        -1.08136
C         26.96647        33.87545        -1.80850
C         28.13518        35.98450        -1.20358
C         26.95048        35.32380        -1.36206
C         28.05959        37.42517        -0.72971
C         26.91151        38.13709        -1.51309
C         28.18991        40.37782        -0.92898
C         26.93014        39.67424        -1.36223
C         28.17589        41.83835        -0.69170
C         26.91953        42.55742        -1.10673
C         28.13952        44.70685        -0.44797
C         26.90202        43.98781        -0.62419
C         28.17161        46.08023        -0.24626
C         26.95852        46.86657        -0.67199
C         28.18936        48.99732        -0.17641
C         26.89999        48.27355        -0.11887
C         28.17870        50.47072         0.20947
C         26.91286        51.07440         0.64570
C         28.18371        53.16919         1.17360
C         26.91591        52.43447         1.08165
C         28.16744        54.54604         1.48235
C         26.96204        55.24839         1.74683
C         26.88503        56.63911         1.83147
C         29.35282        12.60221         1.20118
C         30.60075        14.71352         0.95234
C         29.38179        14.01186         1.11594
C         30.61962        16.11116         0.78506
C         29.38300        16.84016         0.77942
C         30.64670        18.94329         0.43555
C         29.40577        18.26017         0.55055
C         30.58540        20.36340         0.20320
C         29.38764        20.99684        -0.22549
C         30.66126        23.01743        -0.79136
C         29.43296        22.34438        -0.67547
C         30.75135        24.41327        -1.30215
C         29.47357        25.19054        -1.46437
C         30.70590        27.31945        -1.31465
C         29.48269        26.67343        -1.44589
C         30.78545        28.78420        -1.56572
C         29.48902        29.52165        -1.86254
C         30.71185        31.70704        -1.22752
C         29.45832        31.01091        -1.69917
C         30.60100        33.09600        -0.59987
C         29.42063        33.84304        -1.14628
C         30.73604        36.02278        -1.12150
C         29.44840        35.29330        -1.56896
C         30.65836        37.49659        -0.82868
C         29.35639        38.20316        -0.80279
C         30.63193        40.37275        -0.33727
C         29.31626        39.61835        -0.25619
C         30.58191        41.74661        -0.21562
C         29.34824        42.49028        -0.41877
C         30.61829        44.64099         0.11073
C         29.44468        43.98129        -0.56996
C         30.60927        46.06984         0.21908
C         29.40250        46.80357         0.00628
C         30.62871        48.91987         0.39683
C         29.42286        48.21935         0.05433
C         30.61592        50.34175         0.62404
C         29.44638        51.10125         0.64292
C         29.40097        52.46730         1.01862
C         31.83686        16.80757         0.52670
C         33.18818        18.74957        -0.04519
C         31.89754        18.19094         0.37267
C         33.58576        20.04153         0.21793
C         31.71948        21.19237         0.33803
C         33.19046        22.97235        -0.76242
C         31.84820        22.42610        -0.29115
C         33.18120        24.48748        -0.70380
C         31.99294        25.17476        -1.03070
C         33.12530        27.32011        -0.71926
C         31.94081        26.59788        -1.02605
C         32.99931        28.76483        -0.27897
C         31.91768        29.55180        -0.99469
C         32.85737        31.53557         0.20377
C         31.89144        30.90551        -0.81603
C         32.95883        33.08322         0.13470
C         31.99158        33.74879        -0.83162
C         33.14195        35.96608        -0.13760
C         31.98464        35.27226        -0.76186
C         33.06736        37.40811         0.14301
C         31.79801        38.16731        -0.11910
C         33.05810        40.27751         0.18176
C         31.86162        39.64261        -0.12167
C         33.09620        41.79250         0.14310
C         31.73127        42.41983         0.49544
C         33.01368        44.59813         0.71362
C         31.77182        43.92358         0.38378
C         33.00683        46.02166         0.75776
C         31.82523        46.76358         0.53980
C         31.80668        48.18321         0.61892
C         34.64746        20.89377        -0.23030
C         35.64144        23.10145        -0.20645
C         34.48967        22.30190        -0.28744
C         35.63026        24.51928        -0.24940
C         34.37224        25.21367        -0.50817
C         35.61602        27.36571        -0.47173
C         34.33189        26.62808        -0.52648
C         35.59375        28.86925        -0.38774
C         34.29158        29.56326        -0.23618
C         35.47381        31.61836         0.47086
C         34.23010        30.87434         0.10645
C         35.47324        33.09631         0.71962
C         34.20086        33.83850         0.48315
C         35.52093        36.00820         0.46128
C         34.29243        35.29141         0.18529
C         35.53766        37.41604         0.44601
C         34.31814        38.15922         0.32266
C         35.54165        40.29478         0.56318
C         34.29037        39.55726         0.37366
C         35.52487        41.67113         0.72543
C         34.21903        42.37239         1.02170
C         34.20079        43.87643         0.92072
C         36.80231        25.24668         0.01573
C         37.98791        27.40394         0.26802
C         36.84553        26.66615        -0.03875
C         37.99849        28.84438         0.29363
C         36.81746        29.54900         0.04895
C         37.99497        31.73048         0.54345
C         36.78677        31.04191        -0.03230
C         37.97368        33.12447         0.70964
C         36.74435        33.85934         0.62994
C         37.99143        35.98692         0.76633
C         36.74326        35.26044         0.62567
C         37.98854        37.38612         0.74684
C         36.78361        38.14063         0.59714
C         36.76395        39.54013         0.61196
C         39.19430        29.58326         0.61043
C         40.40279        31.71220         1.05171
C         39.19786        30.97898         0.72916
C         40.41011        33.07500         1.12728
C         39.20444        33.84785         0.94369
C         39.19652        35.23781         0.96266
O         32.03633        37.62122         1.21862
O         33.09722        33.65980         1.44780
O         26.64677        16.76923        -0.68396
O         27.89363        40.17706        -2.35539
O         24.96612        54.65737         3.14914
O         26.41258        21.17374         1.42546
O         23.22605        28.27977        -0.22882
O         35.78861        28.18388        -1.69003
O         13.84637        32.33644         0.38612
O         18.08971        45.35194         2.18083
O         22.72127         7.88998         3.31968
O         17.32125        38.87681        -1.94975
O         35.48149        32.13028         1.82902
O         32.76001        20.73418         1.13400
O         29.92113        44.19045        -2.06479
O         24.70136        46.72256        -1.53111
O         21.92557        30.38623        -3.04648
O         28.23723        50.04196        -1.20157
O         19.90839        22.49882        -2.32108
O         23.63461        39.92941         1.22482
O         23.36175        36.65477         0.68154
O         18.93218        33.23537         0.58333
O         15.01425        35.95299        -2.65277
O         22.14290        16.99893        -1.18065
O         31.79389        35.82858        -2.13289
O         15.34190        21.20367         1.88382
O         30.35788        31.71266        -2.63590
O         27.68775        24.98751         0.19454
O         30.14529        24.60469        -2.64103
O         32.21674        31.23545         1.44413
O         14.27694        30.44412        -2.88966
O         30.13365        38.17483        -2.02767
O         15.06764        40.30561        -2.01992
O         30.36713        29.08923        -2.94225
O         25.02729        29.12006        -3.23029
O         18.43989        15.04180         3.22683
H         18.42019        14.16083         3.65886
O         36.77096        31.35418        -1.47465
H         37.36180        30.71954        -1.93335
O         20.07059        18.34203        -1.69422
H         20.69350        17.66931        -2.06216
O         28.14271        22.71986        -2.66258
H         28.92471        23.18148        -3.05480
O         23.78506        58.66545        -0.37643
H         23.22134        58.06779        -0.91045
O         27.71450        33.11574         0.33101
H         28.53958        32.94620         0.85948
O         32.55601        28.62407         1.10567
H         32.38867        29.55622         1.45589
O         13.11634        42.18444        -1.81497
H         13.78203        41.64326        -2.30919
O         24.51351        21.54814        -2.17236
H         24.72038        22.17650        -2.89556
O         29.47251        35.27952        -3.03786
H         30.41190        35.40113        -3.31659
O         16.98292        29.76777        -3.38638
H         16.07768        30.08272        -3.63406
O         23.56081        14.24285        -0.61383
H         23.25433        14.96684        -1.20275
O         27.20533        47.03591        -2.11272
H         26.33126        47.25915        -2.51310
O         26.91915        42.66424        -2.56233
H         27.67924        43.24524        -2.82700
O         13.44492        44.71511         2.33926
H         14.29466        45.16765         2.53300
O         32.48502        33.36762        -2.12868
H         32.11772        33.99026        -2.79517
O         19.75094        43.46415         2.55859
H         19.41269        44.26419         3.02528
O         28.82935        44.59733        -2.90385
H         28.63641        45.54095        -2.65078
O         10.59911        22.83997        -1.87621
H          9.79184        23.31466        -2.16556
O         27.16589        33.81297        -3.23239
H         27.95637        34.36131        -3.46114
O         21.99864        55.10730         3.37422
H         21.09932        55.35679         3.70382
O         19.26121        55.22724         3.23829
H         18.99500        54.33219         3.54064
O         30.34376        32.97449         0.82152
H         31.01571        32.32468         1.25010
O         21.06448        41.20871         1.96236
H         21.91977        40.69971         1.96928
O         14.10349        33.50311        -2.94457
H         14.55584        34.18109        -3.49752
O         19.46610        30.64493         0.39912
H         19.42292        31.52723         0.84675
O         16.53625        34.11726         0.75237
H         17.35606        34.00239         1.28784
O         33.98507        42.10402         2.43611
H         33.01421        42.22228         2.60705
O         18.33948         7.71164         1.38764
H         18.54278         7.87355         0.44393
O         25.72597        16.54839         2.83209
H         24.99844        16.04209         3.26674
O         23.79520        39.87281        -2.45679
H         24.52673        39.77461        -3.10428
O         16.26064        50.53905        -1.59008
H         15.56245        50.17146        -2.17052
O         27.07865        37.84808        -2.91128
H         27.76423        38.46892        -3.25327
O         16.53464        50.51876         2.04435
H         17.18725        50.87662         2.68210
O         20.83978        37.11981         1.19684
H         21.78516        36.87181         1.38869
O         23.78045        59.48621         3.19310
H         24.45128        59.92940         3.75277
O         23.20505        54.84480        -0.08134
H         22.45809        54.37675        -0.51438
O         18.48525        48.88935        -1.42958
H         17.77021        49.49632        -1.75131
O         23.91818        21.85885         1.41024
H         24.75514        22.05500         1.89309
O         22.43580        43.62900         2.16571
H         21.74071        43.02126         2.53020
O         24.95573        42.19647         1.36348
H         24.57638        41.29749         1.61350
O         18.36779        32.07817        -2.81687
H         18.10641        31.29173        -3.36138
O         19.66333        52.67066        -0.98192
H         18.92344        52.20398        -1.42678
O         22.07891        33.54146         0.76218
H         21.20518        33.78125         1.14155
O         15.63626        24.11017        -2.53074
H         14.68696        23.99612        -2.78934
O         33.21090        22.63511        -2.19404
H         32.53039        23.18038        -2.64550
O         24.74991        47.71935         2.02763
H         24.67622        48.53167         2.57310
O         12.92387        37.74477        -2.52969
H         13.64418        37.29592        -3.03437
O         33.42217        42.18269        -1.21205
H         32.72210        41.84385        -1.80928
O         31.41636        42.16285         1.91114
H         30.95912        41.29430         1.97608
O         11.52298        31.60293         1.66142
H         12.45273        31.94130         1.65105
O         21.72583        38.08778        -2.25661
H         22.35259        38.74482        -2.65424
O         18.46794        36.68809        -2.59812
H         17.60887        37.02748        -2.92419
O         24.02145        14.38414         3.02296
H         24.54362        13.80532         3.61862
O         20.67874        27.16509        -3.45772
H         20.49409        26.22338        -3.66301
O         24.41288        51.95143         3.11735
H         24.45998        52.83267         3.56639
O         27.08156        18.57965         2.46247
H         26.97348        19.54682         2.61620
O         13.01363        24.25753        -2.40475
H         12.19794        23.70260        -2.50811
O         14.58990        25.33482         0.77467
H         13.81500        25.82292         1.12507
O         12.44306        28.63557        -2.86547
H         12.72283        29.42127        -3.39058
O         27.70839        37.40058         0.68144
H         26.87180        36.89686         0.79280
O         20.13912        18.81960         1.92279
H         19.52805        18.54612         2.63942
O         18.38278        24.87813         0.81177
H         18.34475        25.85018         0.94556
O         29.04316        39.62361         1.16908
H         28.44733        38.86169         1.37856
O         18.12736        36.58935         0.82538
H         19.02061        36.47465         1.23852
H          5.20934        31.19999         1.31569
H          5.26239        33.66828         1.44631
H          7.52397        26.89494         0.60814
H          6.36379        29.05930         0.96297
H          6.47193        35.78543         1.23883
H          7.67016        37.91783         1.06618
H          9.90013        22.59307         0.09427
H          8.68045        24.74109         0.28128
H          8.82412        40.04926         0.86103
H         10.00496        42.15659         0.87176
H         12.44804        18.50272         1.19964
H         11.14383        20.52755         0.50399
H         11.16819        44.21679         1.09429
H         12.39966        46.51910         0.21565
H         14.86180        14.26375         1.56614
H         13.68754        16.41724         1.54801
H         13.66508        48.63959        -0.09329
H         14.89775        50.75126        -0.01243
H         17.32336         9.95716         2.00913
H         16.08359        12.09229         1.73918
H         16.06030        52.91821         0.89174
H         17.21043        54.94335         1.41137
H         19.77174         5.65798         1.69744
H         19.07762         8.13156         3.25415
H         18.54798        57.11014         1.01415
H         19.77538        59.19291         0.69376
H         23.09081         2.33062         0.77135
H         20.97581         3.55429         1.25172
H         23.20873        62.58339         0.63524
H         21.03789        61.36282         0.54213
H         25.27155         3.52933         0.74196
H         26.56680         5.63364         1.02365
H         26.53340        59.33143         1.89134
H         25.24781        61.49383         1.50438
H         27.84015         7.76884         1.10715
H         29.08020         9.92038         1.19069
H         29.11655        55.10301         1.47740
H         27.81446        57.22444         1.75972
H         30.30135        12.04449         1.16211
H         31.54586        14.15093         0.92063
H         31.56538        50.82211         0.90599
H         30.34526        52.99342         1.22589
H         32.76364        16.21990         0.44410
H         33.84745        18.08728        -0.62681
H         33.94425        46.55466         0.97709
H         32.73181        48.71481         0.88677
H         35.65555        20.47563        -0.38969
H         36.60124        22.60567         0.01083
H         36.47192        42.21399         0.87197
H         35.11412        44.43420         1.18462
H         37.72232        24.69771         0.26924
H         38.91137        26.87068         0.54019
H         38.93975        37.92669         0.86748
H         37.71063        40.08744         0.73916
H         40.12817        29.02650         0.77761
H         41.33306        31.14569         1.20619
H         41.34797        33.61055         1.33689
H         40.13825        35.78439         1.12352
