         234
 CSIRO Nanostructure Databank - Neutral Graphene Oxide Data Set
C          1.20739         2.10538        -0.90385
C          1.22254         3.45981        -1.17853
C          2.38463         1.40607        -0.59302
C          2.47502         4.20693        -1.09571
C          1.23415         6.55229        -1.15247
C          1.17151         7.83666        -0.76550
C          2.47932         5.75619        -1.04697
C          2.29065         8.49770         0.00383
C          1.24199        10.76250         0.23340
C          1.26683        12.19930         0.27856
C          2.32418        10.01105        -0.12975
C          2.39416        12.92970        -0.02374
C          1.26005        15.16968         0.06701
C          1.24825        16.53147         0.17329
C          2.46508        14.37938         0.12241
C          2.43591        17.26945         0.59721
C          2.56556        18.72230         0.41294
C          3.63374         2.08052        -0.46303
C          3.66987         3.50631        -0.59802
C          4.83409         1.36881        -0.24410
C          4.86313         4.21252        -0.31306
C          3.65937         6.41126        -0.43693
C          3.62510         7.80362        -0.20779
C          4.85672         5.67495        -0.23842
C          4.82817         8.49612         0.04218
C          3.58670        10.69772        -0.46939
C          3.61569        12.20025        -0.43723
C          4.89229         9.95630        -0.22027
C          4.95716        12.88467        -0.27363
C          3.71299        15.02119         0.22223
C          3.76618        16.44878         0.59472
C          4.95578        14.31921         0.09162
C          4.99004        17.20550         0.35999
C          3.77471        19.34125         0.44383
C          5.02936        18.60824         0.42486
C          6.06870         2.04726        -0.10625
C          6.04181         3.47924        -0.03857
C          7.30632         1.34886        -0.01466
C          7.28928         4.16575         0.31718
C          6.01237         6.37784         0.17246
C          6.01555         7.77960         0.26223
C          7.27570         5.66388         0.47120
C          7.22845         8.45176         0.87540
C          6.10587        10.70937         0.14333
C          6.17138        12.09350         0.04899
C          7.21710         9.97978         0.78694
C          7.41179        12.81661         0.26560
C          6.18090        14.98231         0.12211
C          6.18308        16.45408        -0.00998
C          7.42492        14.26432         0.15382
C          7.50701        17.20168        -0.00541
C          6.27646        19.30350         0.41577
C          7.51050        18.63727         0.34096
C          8.55704         2.03359         0.02432
C          8.55017         3.44446         0.14412
C          9.81153         1.35543        -0.07460
C          9.79747         4.19202         0.03125
C          8.53133         6.44612         0.31180
C          8.51991         7.79913         0.40550
C          9.78646         5.69822         0.04245
C          9.78539         8.61946         0.15135
C          8.53554        10.71475         0.95885
C          8.61287        12.11574         0.49966
C          9.78899         9.86129         1.18078
C          9.87878        12.77462         0.41230
C          8.64896        14.96689         0.22382
C          8.72345        16.40895         0.21333
C          9.88558        14.22075         0.25152
C          9.91430        17.09711         0.41843
C          8.76399        19.27210         0.50663
C          9.97953        18.54312         0.46672
C         11.05792         2.03876        -0.00660
C         11.07313         3.46349         0.14111
C         12.30244         1.35540        -0.05975
C         12.28156         4.16501         0.27263
C         11.04782         6.41647         0.35265
C         11.03539         7.76941         0.40282
C         12.25975         5.59959         0.76677
C         12.32860         8.51317         0.27562
C         11.09535        10.66883         1.07017
C         11.09831        12.08856         0.63396
C         12.37796         9.91412         0.85465
C         12.34728        12.72854         0.34193
C         11.09305        14.89542         0.22615
C         11.15606        16.32712         0.53204
C         12.30156        14.14030        -0.21409
C         12.47469        17.05164         0.45809
C         11.24283        19.20438         0.44278
C         12.47686        18.52569         0.32165
C         13.52782         2.05182        -0.00884
C         13.50103         3.47483         0.16108
C         14.78391         1.34612        -0.04837
C         14.76747         4.22568         0.16937
C         13.56799         6.34894         0.61508
C         13.55434         7.72841         0.62480
C         14.80183         5.63724         0.57013
C         14.80474         8.50085         0.90614
C         13.61113        10.62377         0.43995
C         13.55769        12.03551         0.25367
C         14.80141         9.91534         0.37306
C         14.83686        12.71097        -0.06259
C         13.58088        14.92223        -0.13524
C         13.65507        16.27925         0.01274
C         14.84480        14.17392        -0.31167
C         14.87564        17.00115        -0.30324
C         13.71764        19.15614         0.12561
C         14.91466        18.42744        -0.18120
C         16.02510         1.98313         0.04244
C         16.06047         3.47070         0.07175
C         17.27379         1.32075         0.02057
C         17.30580         4.11857         0.64252
C         16.06419         6.33592         0.58912
C         16.05286         7.73130         0.61489
C         17.32176         5.61945         0.49556
C         17.28818         8.50525         0.71474
C         16.04478        10.56412         0.00598
C         16.02086        11.89827        -0.40617
C         17.30029         9.89183         0.23685
C         17.25093        12.57273        -0.85154
C         15.94989        14.84360        -1.06764
C         15.93430        16.32643        -0.95917
C         17.23076        14.04109        -1.22815
C         16.94959        17.10139        -1.53503
C         16.14563        19.09563        -0.46275
C         17.19242        18.43112        -1.11131
C         18.50109         2.04736        -0.08391
C         18.51976         3.44374         0.06072
C         19.76856         1.34433        -0.19997
C         19.69755         4.22748        -0.26834
C         18.54594         6.29589         0.44471
C         18.60734         7.74430         0.68622
C         19.77211         5.64837         0.09164
C         19.82971         8.49529         0.37813
C         18.52583        10.56079         0.14443
C         18.56832        11.89881        -0.48156
C         19.77115         9.90503         0.36566
C         19.77317        12.72095        -0.22444
C         18.55408        14.72923        -1.21701
C         18.79879        15.89571        -1.87208
C         19.59899        14.18520        -0.30526
C         19.90592        16.84242        -1.57278
C         18.46151        19.07896        -1.57098
C         19.68108        18.29736        -1.96453
C         20.96539         1.98916        -0.25035
C         21.04373         3.44258        -0.45218
C         22.25743         4.22601        -0.18854
C         20.99912         6.35434        -0.01081
C         21.02953         7.79070         0.08378
C         22.22566         5.58549        -0.10593
C         22.18626         8.59487        -0.26833
C         21.05873        10.68043         0.53617
C         20.93498        12.17133         0.25048
C         22.19098         9.94977        -0.15559
C         22.05486        13.04249         0.55663
C         20.71789        15.08651         0.14245
C         20.74386        16.51745        -0.36996
C         21.98288        14.39886         0.47741
C         20.91017        17.61563         0.62343
C         19.80586        19.29745        -0.84457
C         20.30822        18.81323         0.46645
O          4.35336        10.17238        -1.58420
O         11.95892        16.60861         1.76136
O         15.28681        13.68997         1.01643
O          2.78218         5.05147        -2.28125
O         11.97402        10.29448         2.19031
O          3.04958        16.77211         1.82446
O         21.33431        16.53020        -1.71925
O         16.33459        14.28450        -2.35224
O          7.58771        10.59573         2.06720
O          7.21948         4.84965         1.68971
O         17.74613        16.53750        -2.55465
O         18.02144         8.20188         1.96186
O          6.81866        16.90302        -1.26546
O          4.32630        12.73339        -1.59567
O         20.27598         3.91899        -1.58031
O         15.53965         4.07707        -1.12683
O          9.80114         9.13488        -1.13740
O         19.59339        14.82452         1.04058
O         18.04746        11.84183        -1.85091
O          9.79188         5.02629        -1.25467
O          9.73278         9.28647         2.48048
H          8.79999         9.36732         2.80500
O         14.83067         8.63160         2.38693
H         15.73182         8.92759         2.64446
O          7.13504         8.14486         2.30198
H          7.16354         7.16913         2.41105
O          1.98239         8.26375         1.42311
H          1.95533         7.29513         1.57254
O         17.26221         3.83445         2.08373
H         17.98282         4.33974         2.51543
O         21.38211        10.62178         1.97071
H         21.33583         9.68116         2.24498
O         12.10922         5.43347         2.22255
H         12.15356         6.32280         2.63685
O         12.42855         8.75657        -1.17237
H         11.48158         8.93561        -1.47652
O         12.12490        13.93040        -1.67423
H         11.32444        13.37654        -1.80443
O         20.25433        18.61085        -3.21772
H         21.08356        18.09282        -3.29644
H          0.26141         1.55095        -0.98215
H          0.31065         3.96975        -1.51596
H          2.35107         0.31629        -0.45694
H          0.38681         6.09795        -1.68706
H          0.24493         8.41055        -0.91867
H          0.31474        10.25751         0.54002
H          0.35608        12.71268         0.61701
H          0.32636        14.65651        -0.20536
H          0.33901        17.09643        -0.08076
H          1.64788        19.30950         0.25757
H          4.81073         0.27030        -0.21088
H          3.82606        20.43685         0.35637
H          7.29950         0.25095        -0.06973
H          6.26622        20.39470         0.55854
H          9.81254         0.26161        -0.19186
H          8.79704        20.36272         0.65071
H         12.30883         0.25910        -0.15182
H         11.24641        20.30542         0.42593
H         14.75330         0.24921        -0.13873
H         13.76203        20.25618         0.11164
H         17.30183         0.22110        -0.00778
H         16.23900        20.16591        -0.22691
H         19.74775         0.24661        -0.12504
H         18.27410        19.93537        -2.24546
H         21.90484         1.42226        -0.16793
H         23.21277         3.69050        -0.08151
H         23.17597         6.12435         0.02096
H         23.06572         8.09068        -0.69566
H         23.08661        10.51830        -0.44800
H         23.00712        12.56912         0.83662
H         22.88627        15.00870         0.62594
H         21.35121        17.34936         1.59545
H         20.24078        20.27709        -1.11419
H         20.35962        19.54871         1.28557
