         420
 CSIRO Nanostructure Databank - Neutral Graphene Oxide Data Set
C         28.00624        27.42120        -1.10407
C         27.96390        28.80109        -0.75925
C         26.72401        29.47676        -0.59317
C         27.88340        31.56215        -0.07287
C         26.69017        30.81395        -0.26043
C         27.83392        32.96363         0.28827
C         26.65250        33.67625         0.44986
C         27.77385        35.85850         0.42353
C         26.63232        35.09407         0.53261
C         27.72034        37.32867         0.24337
C         26.67495        38.08211         0.96059
C         27.96481        40.16960         0.82814
C         26.79102        39.40557         1.21638
C         28.05496        41.58773         1.08590
C         26.90949        42.34112         1.51675
C         28.22513        44.40680         1.83195
C         26.95440        43.67663         1.79579
C         28.25413        45.86991         1.76504
C         30.44660        27.43925        -1.05199
C         29.20722        26.76289        -1.23986
C         30.42805        28.83043        -0.75290
C         29.18069        29.51680        -0.58613
C         30.37489        31.62597        -0.10827
C         29.14348        30.90896        -0.24380
C         30.37550        33.02415         0.15695
C         29.10288        33.67673         0.48137
C         30.32757        35.93414         0.12091
C         29.09090        35.22210         0.51130
C         30.30502        37.31779        -0.15478
C         29.00785        38.06374        -0.08240
C         30.20835        40.24126        -0.21607
C         29.04519        39.49929         0.25541
C         30.33765        41.64149         0.16076
C         29.28715        42.26869         0.82527
C         30.54387        44.48569         0.72434
C         29.46588        43.66552         1.28607
C         30.54643        45.86273         0.86027
C         29.38107        46.53593         1.40534
C         32.90048        24.58572        -1.17113
C         31.74883        25.29987        -1.20461
C         32.91337        27.46281        -1.04823
C         31.71319        26.74858        -1.15582
C         32.90704        28.86844        -0.74096
C         31.65677        29.54403        -0.59289
C         32.83826        31.63668        -0.10870
C         31.63009        30.93854        -0.28484
C         32.84075        33.04457         0.43563
C         31.55988        33.78464         0.19516
C         32.79724        35.92279        -0.08768
C         31.56099        35.21376         0.11427
C         32.78399        37.32236        -0.37780
C         31.51482        38.00838        -0.40673
C         32.74830        40.20184        -0.88824
C         31.46262        39.45340        -0.65491
C         32.87131        41.63096        -0.45323
C         31.64038        42.33936         0.03731
C         32.88590        44.52577        -0.20467
C         31.55165        43.83045        -0.18927
C         32.88477        45.93594        -0.06625
C         31.68937        46.62196         0.36336
C         32.82099        48.75603         0.06817
C         31.67774        48.02539         0.35711
C         35.47573        23.11624        -0.88683
C         35.45609        24.53641        -0.90162
C         34.21109        25.24103        -1.28540
C         35.44851        27.42965        -0.78257
C         34.20756        26.76738        -1.21673
C         35.45408        28.93452        -0.87424
C         34.11853        29.58163        -0.56333
C         35.28545        31.68540         0.05427
C         34.07642        30.95854        -0.23299
C         35.30669        33.09856         0.13457
C         34.08294        33.81722         0.10304
C         35.28945        35.93372        -0.20491
C         34.05367        35.21627        -0.05947
C         35.26534        37.33666        -0.48316
C         34.01534        37.99544        -0.67127
C         35.29034        40.17905        -1.27715
C         34.00339        39.41754        -1.09710
C         35.24593        41.71105        -1.47921
C         34.06178        42.41470        -0.82996
C         35.26258        44.58789        -0.80906
C         34.06407        43.81677        -0.59486
C         35.26282        45.98378        -0.72712
C         34.07288        46.68865        -0.35476
C         35.25891        48.89267        -0.27936
C         34.05143        48.12013        -0.21792
C         35.32286        50.24107         0.11779
C         37.86740        23.10668        -0.41455
C         36.64014        22.42387        -0.66294
C         37.85087        24.54438        -0.32915
C         36.62610        25.25419        -0.59485
C         37.83626        27.40426        -0.17513
C         36.61047        26.71105        -0.53389
C         37.80147        28.82756         0.03254
C         36.59446        29.53440        -0.10592
C         37.82430        31.71196         0.52286
C         36.48537        30.90907         0.32903
C         37.78847        33.14545         0.23035
C         36.55475        33.82523         0.12190
C         37.77117        35.94651        -0.22213
C         36.53679        35.24150        -0.09137
C         37.72956        37.35824        -0.43897
C         36.51900        38.03748        -0.57119
C         37.79472        40.26164        -0.72949
C         36.56858        39.46778        -0.98581
C         37.75597        41.69222        -0.80911
C         36.53344        42.38057        -1.03449
C         37.80509        44.60684        -1.11503
C         36.50395        43.85592        -1.15418
C         37.81223        46.06643        -0.85080
C         36.50901        46.75490        -1.00695
C         37.78313        48.93166        -0.42665
C         36.50627        48.25856        -0.72343
C         37.77639        50.30176        -0.05771
C         36.52207        50.93943         0.16597
C         40.29225        20.25812        -0.27151
C         39.16412        20.96331        -0.50567
C         40.29040        23.09842         0.03530
C         39.08290        22.39200        -0.25900
C         40.27737        24.53437         0.14778
C         39.04618        25.24754        -0.03123
C         40.22857        27.40178         0.39459
C         39.03318        26.69257         0.05420
C         40.23125        28.79188         0.45081
C         39.02603        29.52579         0.30820
C         40.25419        31.67207         0.19673
C         39.06187        30.96314         0.32952
C         40.25983        33.09777         0.11858
C         39.02363        33.82655         0.05188
C         40.27796        35.90987        -0.27051
C         39.02515        35.23915        -0.16080
C         40.30088        37.37287        -0.51060
C         38.99561        38.10745        -0.63018
C         40.18914        40.29149        -0.19032
C         38.99225        39.58818        -0.46121
C         40.20980        41.70050        -0.35176
C         39.01660        42.38048        -0.69838
C         40.31041        44.57608        -0.55737
C         39.07376        43.82856        -0.95864
C         40.20813        46.02321        -0.12072
C         38.97628        46.75820        -0.62153
C         40.22906        48.91707        -0.42353
C         38.99886        48.21161        -0.51013
C         40.25263        50.29338        -0.10825
C         39.02742        50.99429         0.12224
C         40.27439        53.01845         0.68240
C         39.07496        52.36113         0.51095
C         42.77915        20.24296         0.04503
C         41.47612        20.89618         0.39999
C         42.73014        23.08870         0.28465
C         41.50427        22.39152         0.19879
C         42.72347        24.52517         0.38878
C         41.49176        25.21670         0.40598
C         42.75423        27.39762         0.56604
C         41.46222        26.65784         0.84323
C         42.75885        28.79148         0.57685
C         41.48212        29.56771         0.80549
C         42.76705        31.68514         0.33188
C         41.52726        30.88573         0.02094
C         42.74936        33.08124         0.25986
C         41.49698        33.79997         0.07982
C         42.77802        35.92337        -0.14322
C         41.48768        35.20383        -0.11867
C         42.75571        37.44849        -0.05725
C         41.48461        38.13731        -0.11760
C         42.70394        40.30469         0.19992
C         41.39122        39.55741         0.36818
C         42.70156        41.69678         0.10602
C         41.45627        42.43871        -0.10188
C         42.69242        44.58612         0.36897
C         41.47457        43.81319        -0.07678
C         42.76264        46.00992        -0.14897
C         41.50625        46.71369        -0.49687
C         42.82218        48.95431        -0.75230
C         41.49980        48.19546        -0.70594
C         42.75047        50.32744        -0.12457
C         41.51706        50.98383         0.06305
C         42.74441        53.03373         0.66504
C         41.51111        52.35292         0.47278
C         43.93368        20.94347         0.03271
C         45.19525        23.08176         0.38393
C         43.96755        22.37437         0.26346
C         45.19736        24.51973         0.44229
C         43.97320        25.23235         0.45520
C         45.21204        27.38066         0.47452
C         43.97840        26.67362         0.49040
C         45.20636        28.80799         0.49913
C         43.97963        29.51693         0.51702
C         45.20436        31.66714         0.63418
C         43.98727        30.96661         0.51077
C         45.21052        33.10637         0.61567
C         43.98220        33.81277         0.40424
C         45.20599        35.94512         0.44295
C         43.99784        35.22062         0.30703
C         45.21115        37.38606         0.47068
C         43.90327        38.12313         0.66166
C         45.15573        40.27835         0.36020
C         43.94201        39.60325         0.34737
C         45.18786        41.69737         0.19774
C         43.95096        42.41568         0.12290
C         45.19222        44.53831         0.12954
C         43.97262        43.82916         0.12544
C         45.20919        45.97752         0.12333
C         43.95876        46.71125        -0.07670
C         45.17923        48.85253         0.02992
C         44.00145        48.15034        -0.22454
C         45.21416        50.28385         0.01617
C         43.97043        51.01049         0.09669
C         43.94166        52.37950         0.49011
C         47.62608        23.09324         0.60613
C         46.43918        22.39963         0.47845
C         47.65798        24.50458         0.58739
C         46.45176        25.22304         0.50002
C         47.67862        27.38063         0.42285
C         46.45957        26.67006         0.48031
C         47.67501        28.82537         0.41359
C         46.44525        29.52855         0.51923
C         47.68210        31.63789         0.73290
C         46.45218        30.94646         0.64423
C         47.67760        33.09094         1.13148
C         46.42081        33.82047         0.72934
C         47.67648        35.95128         0.64948
C         46.43786        35.23127         0.62255
C         47.65715        37.36411         0.55458
C         46.40492        38.07558         0.53259
C         47.67738        40.24686         0.36430
C         46.40936        39.56350         0.81220
C         47.67929        41.67236         0.17641
C         46.42565        42.40176         0.17775
C         47.66795        44.54565         0.14228
C         46.43599        43.82233         0.14409
C         47.67954        45.95942         0.18750
C         46.42912        46.65724         0.20604
C         47.73950        48.87779         0.32149
C         46.41539        48.12222         0.36340
C         47.66916        50.29389        -0.06173
C         46.47292        50.95544        -0.08577
C         50.17633        24.53529         0.23889
C         48.96865        25.22571         0.81880
C         50.13361        27.36595         0.22609
C         48.93677        26.68678         0.42594
C         50.13055        28.83953        -0.09869
C         48.88766        29.54782         0.36094
C         50.17682        31.65427         0.66940
C         48.90149        30.94634         0.57403
C         50.17717        33.10237         0.75979
C         48.94753        33.81552         0.76610
C         50.16895        35.92934         0.62847
C         48.93669        35.22281         0.68107
C         50.14713        37.39430         0.70070
C         48.87385        38.10671         0.49360
C         50.10261        40.20062        -0.23060
C         48.86611        39.50716         0.30166
C         50.19318        41.65216         0.20926
C         48.88142        42.37461         0.01594
C         50.11442        44.48215        -0.17554
C         48.90999        43.80790         0.00032
C         50.24000        45.93134         0.18787
C         48.92887        46.69013         0.12861
C         50.22887        48.76017        -0.05547
C         48.97642        48.07910         0.12876
C         51.31785        25.21824        -0.00070
C         52.60144        27.37848         0.05227
C         51.38103        26.66316         0.10933
C         52.60762        28.81398         0.24917
C         51.40448        29.53186         0.30584
C         52.65672        31.60136         0.87401
C         51.37492        30.92676         0.60002
C         52.67168        33.12391         0.91088
C         51.39760        33.83039         0.72229
C         52.67307        35.95731         0.47678
C         51.40721        35.24403         0.62954
C         52.69156        37.34513         0.29491
C         51.46346        38.12887         0.50427
C         52.59020        40.16800        -0.30978
C         51.42674        39.51277         0.02160
C         52.52799        41.58823        -0.68502
C         51.37664        42.30524        -0.48620
C         52.50587        44.52608        -1.12965
C         51.27592        43.75480        -0.73458
C         52.58318        45.97791        -0.80935
C         51.43055        46.66136        -0.41919
C         51.39145        48.08909        -0.33763
C         55.05081        27.37864        -0.05272
C         53.86010        26.70561        -0.09775
C         55.09173        28.79536         0.16701
C         53.87570        29.50787         0.33979
C         55.13838        31.61632         0.54343
C         53.91548        30.90513         0.56582
C         55.14240        33.08212         0.54501
C         53.93796        33.81500         0.61121
C         55.13711        35.91911         0.17969
C         53.91617        35.22351         0.41155
C         55.12817        37.34520        -0.05656
C         53.89597        38.05781        -0.02340
C         55.07378        40.15725        -0.56308
C         53.86650        39.46694        -0.28697
C         55.06730        41.57530        -0.89370
C         53.77419        42.23386        -1.16410
C         55.05469        44.46843        -1.19599
C         53.77682        43.75798        -1.34939
C         55.03062        45.89760        -1.09102
C         53.86580        46.60998        -0.93988
C         56.31599        29.50019         0.22125
C         56.33692        30.87443         0.38582
C         56.34749        33.80602         0.34956
C         56.34428        35.17530         0.18196
C         56.31796        38.06778        -0.32138
C         56.29057        39.42711        -0.55655
C         56.23106        42.32434        -1.00327
C         56.23114        43.73461        -1.14569
O         40.05305        44.28709        -1.96352
O         41.41924        47.27061        -1.85500
O         36.06640        39.59211        -2.38087
O         37.14585        44.33288        -2.39717
O         50.89455        37.94527         1.85774
O         36.42335        47.70710        -2.09918
O         32.59344        41.81706         1.01917
O         29.21707        34.42663         1.73736
O         39.72221        37.73333        -1.85513
O         47.06654        48.58187         1.60000
O         37.04760        31.23647         1.64535
O         28.01590        37.75087        -1.13144
O         53.71531        42.85586        -2.48812
O         33.15678        39.83000        -2.23825
O         34.34835        26.05604        -2.50327
O         29.24005        43.83198         2.71913
O         52.69670        32.32802         2.15152
O         51.49704        44.20121        -2.14017
O         30.48670        39.90314        -1.63565
O         43.06797        36.75263        -1.32096
O         49.92641        40.23372        -1.67747
H         49.82859        39.31483        -2.00210
O         32.89813        32.87709         1.91426
H         32.02528        32.53105         2.20092
O         50.10251        28.92721        -1.57893
H         49.28352        28.47739        -1.87819
O         43.11934        49.20035        -2.16278
H         42.76394        48.42316        -2.65537
O         40.08233        45.98891         1.32442
H         40.09936        46.90773         1.66374
O         42.58682        44.70320         1.83755
H         43.43687        45.06785         2.16460
O         43.58650        38.03377         2.09508
H         44.32616        38.47634         2.57259
O         30.99944        43.93583        -1.54963
H         31.08443        44.86914        -1.83878
O         50.58357        45.90269         1.64403
H         50.46295        46.81682         1.98289
O         49.15284        25.20940         2.28331
H         49.98910        25.68570         2.47390
O         41.61268        30.50509        -1.38636
H         41.63179        31.32515        -1.92294
O         41.28822        20.67536         1.85093
H         40.43831        21.09955         2.09609
O         41.16421        39.45550         1.82578
H         41.96153        39.00140         2.20371
O         50.46699        41.67332         1.63720
H         50.41786        42.60348         1.94403
O         41.35987        26.63231         2.32297
H         42.08551        26.06010         2.65381
O         35.71332        29.23014        -2.30521
H         35.17112        28.60589        -2.83535
O         41.41757        29.88590         2.21679
H         41.31449        29.03720         2.70104
O         47.65441        33.09084         2.61206
H         48.49147        32.67898         2.91662
O         35.12334        41.95422        -2.90257
H         35.56700        41.20921        -3.36918
O         46.36124        39.66047         2.29150
H         47.24680        39.40061         2.62753
H         27.06071        26.88148        -1.25759
H         25.78748        28.91811        -0.73273
H         25.71549        31.30454        -0.13752
H         25.68332        33.16308         0.39200
H         25.65064        35.58923         0.53848
H         25.81414        37.52668         1.36038
H         25.99345        39.90668         1.78110
H         25.93251        41.83916         1.54215
H         26.02422        44.23266         1.98468
H         27.33687        46.42520         2.01181
H         29.19614        25.69947        -1.51234
H         29.36284        47.63373         1.42141
H         32.84914        23.49420        -1.05483
H         30.79992        24.75025        -1.14515
H         32.76101        49.85143         0.09215
H         30.76249        48.57594         0.60921
H         34.55672        22.55524        -1.10193
H         34.40646        50.77272         0.40695
H         36.61509        21.32701        -0.68630
H         36.49121        51.99735         0.45630
H         40.32545        19.17771        -0.47685
H         38.29505        20.44768        -0.93749
H         40.28351        54.07412         0.98976
H         38.14252        52.91416         0.68382
H         42.78356        19.15825        -0.13924
H         42.72766        54.08926         0.97258
H         44.87397        20.41899        -0.18859
H         44.88418        52.91357         0.67264
H         48.55738        22.52510         0.73171
H         46.46408        21.30228         0.49354
H         48.58990        50.83830        -0.31165
H         46.47359        52.03420        -0.29872
H         50.17200        23.44261         0.12154
H         50.24810        49.85746        -0.02814
H         52.20829        24.66771        -0.33558
H         52.28657        48.67515        -0.58714
H         55.99852        26.83541        -0.17885
H         53.87455        25.61920        -0.25777
H         55.99234        46.43158        -1.09211
H         53.93808        47.69959        -0.82066
H         57.25932        28.94709         0.10686
H         57.30859        31.38522         0.39444
H         57.31001        33.27941         0.31921
H         57.30517        35.68479         0.03308
H         57.28578        37.55070        -0.35033
H         57.23735        39.93850        -0.77345
H         57.20765        41.84033        -0.86665
H         57.19313        44.26601        -1.10462
