         618
 CSIRO Nanostructure Databank - Neutral Graphene Oxide Data Set
C         23.19705        69.81291         2.24401
C         23.22423        71.19981         2.53413
C         22.08214        71.90126         3.01177
C         23.34920        73.97486         3.11228
C         22.15643        73.26181         3.28948
C         25.56895        65.68277         1.05938
C         25.48150        67.09116         1.01266
C         24.35053        67.74522         1.49805
C         25.51720        69.90665         1.45515
C         24.31514        69.16535         1.69163
C         25.59305        71.23439         1.88303
C         24.45261        71.91482         2.37782
C         25.73416        74.04469         2.46373
C         24.52043        73.32512         2.66339
C         27.98535        61.44914         0.70217
C         27.96358        62.85447         0.55650
C         26.78422        63.58887         0.79867
C         27.92702        65.73422         0.27824
C         26.73828        64.99261         0.68830
C         27.89198        67.14644         0.17357
C         26.52456        67.83998         0.19615
C         28.01118        69.77766         0.93010
C         26.57507        69.37505         0.51416
C         28.11532        71.21810         1.44285
C         26.89693        71.93212         1.92744
C         28.15885        74.06567         1.96032
C         26.92910        73.40482         2.08467
C         30.50322        57.17743         0.60964
C         30.42988        58.56609         0.66488
C         29.20836        59.29302         0.66859
C         30.40238        61.42223         0.24954
C         29.17670        60.70171         0.57389
C         30.33603        62.84048        -0.03437
C         29.16540        63.56749         0.15797
C         30.28923        65.75313        -0.33774
C         29.12890        65.02003         0.02199
C         30.27587        67.16176        -0.38943
C         29.07399        67.85618        -0.14696
C         30.36536        70.07785        -0.02212
C         29.00696        69.38655        -0.19283
C         30.46905        71.37177         0.70789
C         29.33305        72.01134         1.18177
C         30.59589        74.07833         1.52310
C         29.36686        73.39572         1.57779
C         32.71843        52.71300         0.18495
C         32.45967        53.96743         0.69292
C         31.53185        54.99437         0.38360
C         32.96514        57.08394         0.82835
C         31.72367        56.40193         0.64951
C         32.99581        58.57117         0.77079
C         31.68634        59.34542         0.70073
C         32.83559        61.40039        -0.24474
C         31.60831        60.74035         0.21402
C         32.84505        62.85978        -0.42788
C         31.54431        63.51956        -0.53775
C         32.80895        65.74702        -0.73305
C         31.51669        65.02595        -0.72350
C         32.80001        67.12849        -0.75446
C         31.50110        67.89907        -0.91638
C         32.89790        69.82297         0.30319
C         31.61546        69.34689        -0.37439
C         32.94395        71.32431         0.52831
C         31.73599        72.03620         0.76300
C         33.06949        74.02740         1.31466
C         31.79410        73.40315         1.18462
C         35.32547        48.48637         0.05576
C         35.28865        49.90965         0.05039
C         34.07818        50.58815         0.12072
C         35.21354        52.81074        -0.16219
C         34.03982        52.03456         0.53569
C         35.38822        54.26829         0.28060
C         34.42604        54.98480         0.95070
C         35.54310        57.16381         0.46685
C         34.30346        56.44899         0.94205
C         35.40393        58.58043         0.07792
C         34.22801        59.24238         0.25513
C         35.41210        61.46156        -0.24251
C         34.12472        60.65189        -0.23370
C         35.26557        62.83866        -0.85464
C         34.03008        63.55669        -0.72559
C         35.26611        65.66905        -1.03925
C         34.03220        64.99507        -0.86872
C         35.32759        67.12071        -0.95332
C         34.05564        67.85829        -0.93109
C         35.41826        69.86041        -0.03972
C         34.12722        69.32952        -0.43839
C         35.42548        71.13469         0.70283
C         34.17988        71.94904         0.72772
C         35.56710        73.99858         1.46886
C         34.24753        73.32035         1.12084
C         37.79897        44.25971         0.58834
C         37.78788        45.66557         0.42400
C         36.57059        46.37584         0.29846
C         37.78523        48.52129         0.11663
C         36.54120        47.78180         0.14879
C         37.76099        49.93891         0.02286
C         36.54950        50.64353         0.02517
C         37.71155        52.77089        -0.42013
C         36.54357        52.07567        -0.10791
C         37.61374        54.18975        -0.94267
C         36.52926        54.98494        -0.24758
C         37.78311        57.06146        -0.68893
C         36.63707        56.36234        -0.14136
C         37.80316        58.46138        -0.78579
C         36.70535        59.29827        -0.17525
C         37.75626        61.30527        -1.27216
C         36.46797        60.58742        -0.95518
C         37.63902        62.73353        -1.63128
C         36.42500        63.49797        -1.25756
C         37.72365        65.60066        -1.29555
C         36.45265        64.92553        -1.28494
C         37.81070        66.98221        -0.69772
C         36.52951        67.78168        -0.78082
C         37.88253        69.73880        -0.02731
C         36.61180        69.17085        -0.35196
C         38.00309        71.05633         0.58027
C         36.75805        71.80974         0.94099
C         37.94913        73.96891         0.64601
C         36.81392        73.28491         0.98155
C         40.28109        39.99015         1.05711
C         40.25020        41.40524         0.88727
C         39.03787        42.12014         0.84523
C         40.25280        44.24006         0.57343
C         39.00576        43.52813         0.67218
C         40.25265        45.66053         0.41537
C         39.03711        46.39016         0.35462
C         40.24677        48.54985         0.03220
C         39.02364        47.81937         0.18611
C         40.27700        49.93183        -0.22784
C         39.04775        50.72620         0.12770
C         40.12624        52.73715        -0.94827
C         38.97788        52.09836        -0.49989
C         40.13889        54.16914        -1.13700
C         38.94486        54.90199        -0.98321
C         40.18648        57.00835        -1.28340
C         38.96277        56.31528        -1.03066
C         40.18204        58.43560        -1.39395
C         38.96094        59.15298        -1.20963
C         40.15675        61.25411        -1.97896
C         38.92174        60.59663        -1.39820
C         40.18572        62.74889        -1.77489
C         38.91871        63.50497        -1.89960
C         40.18498        65.61482        -1.29651
C         38.90060        64.92498        -1.50692
C         40.26094        67.07673        -1.38361
C         38.95567        67.81722        -1.27255
C         40.42003        69.78639        -0.60063
C         39.11235        69.04074        -0.39982
C         40.42180        71.23480        -0.39648
C         39.30255        71.86576         0.31779
C         40.31374        74.04681        -0.14084
C         39.20064        73.33833         0.26179
C         42.73819        35.89894         2.02958
C         42.68894        37.14341         1.36102
C         41.50564        37.87979         1.36337
C         42.73560        39.95653         0.80481
C         41.47859        39.27085         1.03839
C         42.74720        41.37698         0.72071
C         41.49989        42.11424         0.77665
C         42.74045        44.25863         0.61851
C         41.47341        43.51478         0.65707
C         42.69739        45.65678         0.17915
C         41.50681        46.34315         0.20146
C         42.77110        48.54368        -0.27686
C         41.51283        47.81987         0.11393
C         42.68857        49.93410        -0.76252
C         41.45544        50.60107        -0.66137
C         42.65163        52.71870        -1.39299
C         41.34556        51.94127        -1.35741
C         42.61216        54.10819        -1.48149
C         41.38452        54.85301        -1.34259
C         42.65426        56.99980        -1.45682
C         41.40401        56.27569        -1.40494
C         42.65452        58.43296        -1.39706
C         41.41992        59.14113        -1.49721
C         42.60094        61.26188        -1.26746
C         41.43583        60.56921        -1.55107
C         42.51762        62.72042        -0.92727
C         41.35096        63.39673        -1.56845
C         42.70382        65.45396        -2.05542
C         41.43580        64.86694        -1.45015
C         42.62891        67.02651        -2.25275
C         41.46456        67.70247        -1.52188
C         42.77263        69.88107        -1.41157
C         41.42696        69.21115        -1.59499
C         42.77915        71.27044        -1.11332
C         41.55040        71.96457        -0.73518
C         42.75693        74.08456        -0.58766
C         41.55453        73.39394        -0.50104
C         45.22063        33.64715         3.70262
C         43.98862        34.16886         3.26265
C         45.21028        35.71816         1.77526
C         43.93664        35.23146         2.34442
C         45.20383        37.01578         0.97172
C         43.88816        37.71216         0.61381
C         45.15745        39.89053         0.44380
C         43.95007        39.22793         0.68874
C         45.18307        41.31078         0.30760
C         43.98213        42.03370         0.48615
C         45.23441        44.17932        -0.06127
C         44.04302        43.50203         0.49291
C         45.21243        45.54505        -0.35111
C         43.91753        46.25305        -0.39598
C         45.19542        48.39857        -0.94945
C         43.92153        47.70803        -0.72650
C         45.11251        49.79110        -1.38750
C         43.86847        50.57216        -1.23872
C         45.16003        52.66094        -1.56624
C         43.89377        51.97995        -1.47031
C         45.17253        54.11454        -1.81323
C         43.84937        54.86132        -1.78729
C         45.11888        57.01154        -1.46854
C         43.87978        56.31710        -1.55213
C         45.10783        58.42657        -1.23602
C         43.87347        59.13958        -1.25059
C         45.00421        61.29560        -0.74149
C         43.85568        60.58208        -1.07042
C         44.95626        62.76721        -0.33001
C         43.80680        63.50797        -0.96253
C         45.08227        65.61717        -1.09578
C         43.86490        64.83566        -1.28692
C         45.13436        66.94955        -1.42790
C         44.03394        67.73345        -2.13873
C         45.19955        69.88979        -1.56894
C         43.97213        69.18440        -1.62795
C         45.22713        71.28729        -1.30851
C         44.00351        71.98046        -1.09069
C         45.20033        74.11009        -0.76384
C         43.99896        73.40968        -0.82284
C         46.43270        34.20280         3.31469
C         47.65786        35.95032         2.06116
C         46.47989        35.29605         2.40136
C         47.66062        37.19041         1.34041
C         46.45021        37.76973         0.93139
C         47.63356        39.95773         0.68710
C         46.44206        39.10791         0.23566
C         47.65645        41.23491        -0.12749
C         46.40328        42.02043        -0.04498
C         47.64154        44.12556        -0.66867
C         46.41558        43.39682        -0.26786
C         47.65241        45.59943        -0.57381
C         46.42014        46.28127        -0.60777
C         47.65776        48.43123        -0.89999
C         46.40174        47.70915        -0.86622
C         47.68173        49.84320        -1.06093
C         46.46044        50.54710        -1.46353
C         47.63572        52.72402        -1.31252
C         46.39814        52.01066        -1.40564
C         47.61702        54.15213        -1.44374
C         46.42501        54.86898        -1.59467
C         47.56401        57.05292        -1.30273
C         46.37612        56.30986        -1.49993
C         47.53490        58.45267        -1.06241
C         46.32169        59.14048        -1.01958
C         47.47746        61.45366        -0.87224
C         46.28489        60.55144        -0.45271
C         47.50551        62.77572        -0.03841
C         46.25290        63.53933        -0.42537
C         47.47721        65.65574        -0.13883
C         46.26195        64.88727        -0.61096
C         47.53447        67.07462        -0.62497
C         46.49976        67.59310        -1.57904
C         47.73166        69.90789        -1.47642
C         46.47350        69.13365        -1.72752
C         47.69031        71.37541        -1.31758
C         46.48075        72.03591        -1.25058
C         47.64965        74.17482        -0.81111
C         46.46340        73.46933        -0.97177
C         48.90781        37.88385         1.11709
C         50.16053        39.93117         0.55513
C         48.95023        39.21367         0.70772
C         50.21077        41.29556         0.16829
C         48.97237        41.92347        -0.35970
C         50.18732        44.17319        -0.34788
C         48.97752        43.39355        -0.64870
C         50.14783        45.59124        -0.35200
C         48.88424        46.31038        -0.52075
C         50.04005        48.51352        -0.24109
C         48.85213        47.72436        -0.58486
C         50.09830        49.94243        -0.57221
C         48.88191        50.60764        -0.91312
C         50.11712        52.75309        -0.95421
C         48.86938        52.03050        -1.08801
C         50.14297        54.15013        -1.08685
C         48.90548        54.85589        -1.46716
C         50.06423        57.01498        -0.77966
C         48.86494        56.36774        -1.38390
C         50.05310        58.49670        -0.60134
C         48.81280        59.22092        -1.00693
C         50.05437        61.40330        -0.46342
C         48.81062        60.70907        -0.89228
C         50.04337        62.78839        -0.30864
C         48.78561        63.53799        -0.31827
C         50.05316        65.66564        -0.55823
C         48.77522        64.89419        -0.36081
C         49.99366        67.08172        -0.00461
C         48.73653        67.83494        -0.30773
C         50.20907        69.90943        -0.83301
C         48.87806        69.26903        -0.76318
C         50.32307        71.34543        -1.32486
C         48.97537        72.08951        -1.41639
C         50.21725        74.26176        -0.81413
C         48.94406        73.58819        -1.14497
C         51.37845        42.05575         0.20466
C         52.60389        44.19941         0.01288
C         51.40056        43.47356        -0.04978
C         52.61279        45.61317        -0.10457
C         51.36136        46.30060        -0.18840
C         52.60503        48.50686        -0.18938
C         51.36003        47.75755        -0.02803
C         52.57886        49.90996        -0.31771
C         51.33045        50.62905        -0.50174
C         52.58528        52.74999        -0.67209
C         51.35235        52.04517        -0.70643
C         52.61649        54.17387        -0.83218
C         51.36773        54.89886        -0.98328
C         52.56434        57.10071        -0.94163
C         51.34598        56.29884        -0.90335
C         52.55053        58.55327        -0.59500
C         51.32464        59.25233        -0.56735
C         52.51596        61.36216        -0.20427
C         51.28850        60.66292        -0.42059
C         52.47918        62.75629         0.04673
C         51.27502        63.49780        -0.06934
C         52.47859        65.65670         0.00461
C         51.28777        64.92758        -0.09217
C         52.53111        67.07817        -0.17098
C         51.28739        67.84395         0.00352
C         52.64169        69.93889        -0.39273
C         51.33350        69.26596        -0.39696
C         52.63628        71.34455        -0.34211
C         51.29261        72.05663        -0.34316
C         52.61927        74.20812        -0.36721
C         51.37692        73.55288        -0.57601
C         53.81999        46.36130        -0.06224
C         55.05440        48.50344        -0.14452
C         53.84158        47.77802        -0.15433
C         55.06158        49.91583        -0.19880
C         53.81558        50.62678        -0.33390
C         55.05191        52.75272        -0.37695
C         53.82108        52.04189        -0.46623
C         55.06348        54.17374        -0.46840
C         53.83768        54.86475        -0.72905
C         55.10322        57.03116        -0.47917
C         53.88423        56.32215        -0.88006
C         55.00256        58.45800         0.00246
C         53.76679        59.24116        -0.38850
C         54.99669        61.36883        -0.01321
C         53.76417        60.64334        -0.17704
C         55.00765        62.74905         0.16434
C         53.72748        63.43605         0.38405
C         54.98802        65.60584        -0.07413
C         53.73508        64.96939         0.33871
C         54.87048        66.87388        -0.62399
C         53.74465        67.73969        -0.41029
C         55.10908        69.91689        -0.21433
C         53.86249        69.19818        -0.38123
C         55.06707        71.33747        -0.09114
C         53.85256        72.04705        -0.20022
C         54.99368        74.22319         0.16367
C         53.82589        73.51517        -0.15053
C         56.27623        50.64223        -0.12817
C         57.50184        52.78915        -0.04880
C         56.29335        52.04961        -0.18528
C         57.52411        54.19190        -0.11330
C         56.28955        54.89048        -0.36153
C         57.59145        57.06788        -0.42731
C         56.28041        56.32438        -0.34878
C         57.47781        58.50241         0.02733
C         56.31339        59.19291        -0.07877
C         57.46034        61.39976         0.43518
C         56.32045        60.69183        -0.24767
C         57.46127        62.78610         0.49366
C         56.23162        63.51068         0.23795
C         57.47098        65.65303         0.37916
C         56.24980        64.91884         0.10872
C         57.53901        67.06458         0.41326
C         56.63521        67.90754        -0.26667
C         57.50445        69.92953         0.67343
C         56.38309        69.25373         0.04519
C         57.55583        71.40657         0.53880
C         56.36386        72.13437        -0.08802
C         57.24428        74.24314         1.05718
C         56.22051        73.55464         0.44796
C         58.73290        54.92918         0.13373
C         59.98848        57.05204         0.31950
C         58.79732        56.32425         0.09347
C         60.01603        58.47133         0.42939
C         58.70642        59.15892         0.52678
C         59.93798        61.35248         0.90187
C         58.66848        60.63689         0.79110
C         59.86282        62.78340         1.34760
C         58.64223        63.52626         0.85721
C         59.85584        65.64571         1.15033
C         58.63654        64.91437         0.84109
C         59.83233        67.03854         1.35454
C         58.47875        67.72094         1.40144
C         59.66532        69.90148         1.94695
C         58.55038        69.22316         1.22476
C         59.65082        71.39530         2.07824
C         58.59489        72.14239         1.30874
C         59.74078        74.28341         1.54000
C         58.42057        73.58751         1.72574
C         61.17442        59.22839         0.60565
C         62.37397        61.40159         0.94984
C         61.16164        60.65935         0.82861
C         62.37793        62.82374         1.06809
C         61.14192        63.53579         1.13593
C         62.32333        65.68420         1.31031
C         61.10805        64.94509         1.20339
C         62.28448        67.08701         1.53556
C         61.01987        67.74468         1.61848
C         62.26932        69.92174         2.19185
C         60.96317        69.14841         2.08593
C         62.25582        71.42956         2.22382
C         60.93415        72.18245         2.22767
C         62.18141        74.25253         1.60086
C         60.93200        73.60398         1.75798
C         63.58276        63.57187         1.08308
C         64.77435        65.73196         1.23889
C         63.57760        64.98069         1.22178
C         64.76024        67.14191         1.37202
C         63.51394        67.83395         1.59151
C         64.69937        69.98737         1.57790
C         63.51528        69.23989         1.76404
C         64.67685        71.43336         1.57128
C         63.47183        72.14057         1.78201
C         64.62738        74.26283         1.36131
C         63.42473        73.56293         1.61418
C         65.95449        67.88885         1.28702
C         67.13076        70.04408         1.14540
C         65.94131        69.29966         1.33468
C         67.11812        71.45515         1.11951
C         65.87953        72.15330         1.30561
C         67.07294        74.28531         0.99845
C         65.85690        73.58280         1.23338
C         68.30659        72.20112         0.89459
C         68.27225        73.59508         0.83999
O         49.10953        55.71697        -2.65818
O         61.64664        69.31694         3.36532
O         43.61468        44.06669         1.79757
O         31.34552        64.14450        -1.87426
O         55.94568        67.37143        -1.36794
O         49.81889        57.60799         0.55233
O         31.06180        70.28363        -1.32612
O         33.94702        69.00612        -1.84461
O         48.47242        68.96573         0.61838
O         48.31354        43.70150        -1.90936
O         58.80177        71.90051        -0.11845
O         35.28259        57.02740         1.91324
O         42.44171        48.39548         1.13911
O         53.71840        64.25155         1.60069
O         41.02902        65.20669        -0.07246
O         50.53985        48.21244         1.11058
O         42.16991        67.26836        -3.58530
O         53.35648        56.83777        -2.16121
O         32.44693        59.24752         1.96799
O         43.60095        46.74224        -1.78774
O         33.40210        54.38940         1.67702
O         33.39303        60.71206        -1.49555
O         44.47521        54.48090        -3.06260
O         48.97464        73.03101        -2.54096
O         27.81360        71.26507         2.89809
O         25.96122        67.64326        -1.08145
O         40.18175        68.98337         0.58683
O         38.06965        63.07474        -3.01263
O         50.59675        67.41710         1.25398
O         45.27554        35.69636         0.30523
O         45.80884        50.00832        -2.65740
O         58.45742        59.65202         1.90234
O         36.05516        71.14164         2.04502
O         39.02379        71.24105         1.60921
O         59.21713        70.57763         3.18904
O         61.67153        71.98048         3.45573
O         47.36347        69.51920        -2.84464
O         49.02143        60.04677        -2.20729
O         48.32089        41.13673        -1.41333
O         26.14184        69.99176        -0.76782
O         47.51410        62.57511         1.38587
H         46.61439        62.26343         1.65003
O         35.91628        60.16776        -2.22216
H         35.53111        60.94521        -2.67948
O         42.79167        64.88620        -3.37576
H         42.52162        65.63882        -3.97931
O         34.27477        51.97923         1.95968
H         33.98005        52.83830         2.34653
O         28.51552        69.80166        -1.47804
H         29.23734        69.62158        -2.12344
O         35.76985        61.77142         1.12247
H         36.30535        61.02518         1.49430
O         50.91203        71.32131        -2.63301
H         50.49478        72.05011        -3.15090
O         58.10865        73.54562         3.15513
H         58.27170        74.43487         3.53219
O         54.78707        58.28751         1.46352
H         55.65904        58.13319         1.88812
O         57.86079        57.18781        -1.86937
H         57.10867        57.66781        -2.27879
O         28.35867        68.93257         2.05304
H         28.12805        69.43930         2.86994
O         35.55234        75.36044         1.03838
H         35.40432        75.38079         0.07105
O         37.23259        59.61418         1.15954
H         37.11707        58.81706         1.72202
O         47.06482        67.02031        -2.80719
H         47.39320        67.78620        -3.34510
O         59.69065        62.69518         2.82145
H         60.41754        62.13493         3.16883
O         44.53983        67.86322        -3.48854
H         43.73369        67.70317        -4.06169
O         56.59604        60.85195        -1.70250
H         56.52708        61.80915        -1.90948
O         47.35035        40.32455         2.06761
H         48.18403        40.61779         2.49065
O         50.19598        65.88584        -2.00413
H         50.01943        65.03734        -2.46381
O         38.55300        68.25387        -2.58902
H         39.33087        68.72886        -2.98988
O         47.21220        61.89313        -2.21842
H         47.61673        61.23199        -2.82819
O         44.71485        62.68190         1.12958
H         43.72474        62.62693         1.23920
O         26.52237        71.38546        -0.76726
H         27.33625        71.35460        -1.34016
O         38.10546        66.80061         0.71231
H         37.42776        66.21025         1.10151
O         43.67214        37.42725        -0.80304
H         43.89052        36.47349        -0.92410
O         39.20161        51.01655         1.56839
H         39.27408        50.15684         2.03585
O         46.35557        60.32755         0.98918
H         45.51835        59.90141         1.26898
O         41.07647        51.60143        -2.77129
H         41.91367        51.26836        -3.16132
O         46.56452        38.82657        -1.17706
H         45.74758        38.35897        -1.46050
O         47.34573        65.74281         1.32165
H         47.40097        64.82265         1.67145
O         37.18393        54.06920        -2.35759
H         37.89594        53.59625        -2.84109
O         34.82344        52.87497        -1.55736
H         35.56270        53.30464        -2.06149
O         56.67099        72.29749        -1.50193
H         57.63718        72.48171        -1.55791
O         40.96659        69.52933        -2.94590
H         41.41718        68.82180        -3.51287
O         42.13042        62.72860         0.51817
H         41.72235        63.61742         0.68748
O         57.90742        67.48709         2.72591
H         58.39888        68.04359         3.36833
O         31.29541        68.00524        -2.34770
H         32.06170        68.50549        -2.71073
O         40.06155        61.05112        -3.42277
H         39.31595        61.61632        -3.73679
O         50.69947        71.89061         0.97367
H         51.32880        72.23257         1.64216
O         32.91391        69.18434         1.61127
H         33.62986        69.58840         2.14743
H         23.37935        75.05300         3.32555
H         25.73964        75.13120         2.64096
H         28.20689        75.14638         2.16380
H         30.63981        75.13866         1.81265
H         33.12198        75.07540         1.64479
H         35.63073        74.02471         2.59331
H         37.91899        75.06979         0.66940
H         40.28606        75.14741        -0.13738
H         42.77754        75.16878        -0.39927
H         45.18652        75.18980        -0.55154
H         47.61930        75.20628        -0.42886
H         50.24831        75.36204        -0.85334
H         52.64328        75.30850        -0.39794
H         54.93221        75.31156         0.31958
H         57.06821        75.30093         1.31744
H         59.76791        75.33491         1.21631
H         62.18620        75.32684         1.36375
H         64.59994        75.35714         1.25393
H         67.05500        75.38311         0.94403
H         22.27726        69.23951         2.43246
H         21.13534        71.35956         3.14834
H         21.26249        73.79136         3.64805
H         24.72468        65.10924         1.47599
H         23.49925        67.14656         1.86147
H         27.04935        60.92766         0.95382
H         25.87617        63.05064         1.11153
H         29.55924        56.61449         0.54347
H         28.26063        58.74140         0.76315
H         32.10162        52.29918        -0.62477
H         30.57971        54.71452        -0.09202
H         34.37654        47.92985         0.08327
H         33.13858        50.01359         0.10184
H         36.84012        43.72302         0.64301
H         35.62072        45.82172         0.32985
H         39.33331        39.45238         1.21001
H         38.08877        41.57100         0.93601
H         41.80491        35.52371         2.47943
H         40.58753        37.41813         1.75991
H         45.21674        32.81180         4.41679
H         43.05089        33.76908         3.67435
H         47.37428        33.81321         3.72743
H         48.61283        35.57857         2.46205
H         49.84652        37.33538         1.28840
H         51.10764        39.41710         0.78197
H         52.31710        41.57709         0.52183
H         53.55214        43.66530         0.16864
H         54.77445        45.82212         0.02806
H         56.00869        47.96089        -0.07546
H         57.22247        50.09334        -0.01262
H         58.43896        52.24259         0.13452
H         59.63460        54.36035         0.40982
H         60.92660        56.49572         0.47379
H         62.15204        58.72404         0.57375
H         63.33479        60.87036         0.89151
H         64.54541        63.04514         1.00542
H         65.73865        65.21643         1.11851
H         66.90830        67.36479         1.12809
H         68.07797        69.50838         0.98423
H         69.25748        71.66620         0.75990
H         69.20196        74.15406         0.66345
