         640
 CSIRO Nanostructure Databank - Neutral Graphene Oxide Data Set
C         23.01708        27.33062        -0.84141
C         23.02490        28.68174        -1.10270
C         23.11424        31.55264        -1.80472
C         23.11237        32.95367        -1.97534
C         23.05826        35.91523        -1.83774
C         23.04507        37.30723        -1.70321
C         22.98850        40.20615        -1.38552
C         22.96603        41.57341        -1.15834
C         22.89645        44.51518        -0.50577
C         22.92412        45.84289        -0.22210
C         25.42085        24.53385        -0.28418
C         24.23930        25.21624        -0.42533
C         25.44858        27.35451        -0.50321
C         24.23076        26.63520        -0.57857
C         25.45255        28.76624        -0.75137
C         24.23818        29.42686        -1.10259
C         25.56099        31.49294        -1.56619
C         24.25824        30.82198        -1.48068
C         25.54671        33.03059        -1.74441
C         24.26099        33.72859        -1.83274
C         25.50149        35.88695        -1.71540
C         24.26904        35.17924        -1.79906
C         25.51486        37.37813        -2.02795
C         24.21590        38.06463        -1.68475
C         25.42532        40.20053        -1.22863
C         24.20621        39.48688        -1.44476
C         25.38404        41.58579        -0.95748
C         24.15657        42.28888        -0.93708
C         25.42009        44.52679        -0.62886
C         24.12893        43.77997        -0.84448
C         25.40020        45.93161        -0.17785
C         24.15428        46.59668        -0.10231
C         25.32332        48.68318         0.30439
C         24.13837        47.98597         0.16937
C         27.95726        23.08594        -0.07496
C         27.91843        24.50967        -0.12638
C         26.67445        25.21909        -0.23678
C         27.90948        27.34885        -0.15393
C         26.68492        26.64221        -0.28653
C         27.85079        28.83770         0.06766
C         26.68114        29.49490        -0.62688
C         27.92944        31.60887        -0.71075
C         26.74745        30.84951        -0.96022
C         27.86601        33.07710        -0.73965
C         26.71636        33.79307        -1.30503
C         28.00456        35.90497        -1.46356
C         26.70482        35.18401        -1.43182
C         28.01813        37.42121        -1.58710
C         26.73064        38.13378        -1.52376
C         27.95623        40.23862        -1.11422
C         26.70330        39.48580        -1.25737
C         27.92633        41.60620        -0.88972
C         26.64680        42.27782        -0.58904
C         27.93345        44.52143        -0.35670
C         26.66526        43.75326        -0.36145
C         27.89876        45.90611        -0.05104
C         26.61562        46.60898         0.05904
C         27.81562        48.75017         0.34524
C         26.58222        48.02210         0.25557
C         27.88519        50.13669         0.16046
C         30.39356        23.09498         0.04988
C         29.14633        22.40690         0.01095
C         30.39014        24.51807        -0.00183
C         29.14777        25.22554        -0.08635
C         30.38515        27.37927        -0.02179
C         29.13608        26.66090        -0.08562
C         30.38318        28.81807        -0.04251
C         29.16125        29.54644        -0.14828
C         30.37626        31.70610        -0.26371
C         29.14523        30.96302        -0.32618
C         30.41667        33.08723        -0.47699
C         29.16897        33.85731        -0.55619
C         30.44201        35.94316        -0.96901
C         29.23420        35.25330        -1.00952
C         30.45894        37.39321        -1.05474
C         29.26048        38.11592        -1.22667
C         30.44617        40.22723        -0.95819
C         29.23052        39.53589        -1.13655
C         30.47602        41.68978        -1.05390
C         29.13886        42.43236        -1.00298
C         30.37300        44.56227        -0.44189
C         29.15863        43.85958        -0.57042
C         30.36110        45.92808        -0.02522
C         29.11403        46.59166         0.15152
C         30.33375        48.76444         0.56777
C         29.05441        47.99170         0.73773
C         30.33358        50.14512         0.42543
C         29.09021        50.82580         0.21559
C         32.84405        20.27850         0.31766
C         31.66025        20.96446         0.24108
C         32.87432        23.09455         0.13363
C         31.63562        22.38430         0.13755
C         32.86507        24.53041         0.10176
C         31.62986        25.23352         0.04343
C         32.85717        27.37848         0.05591
C         31.61524        26.67064         0.02533
C         32.84710        28.80881         0.03649
C         31.62360        29.50850        -0.00193
C         32.89416        31.64277        -0.22380
C         31.61678        30.99771         0.22922
C         32.88059        33.02616        -0.65262
C         31.64230        33.81421        -0.60571
C         32.91990        35.94612        -0.62555
C         31.67650        35.21363        -0.74041
C         32.89800        37.38274        -0.58679
C         31.67627        38.09708        -0.78914
C         32.87559        40.25340        -0.50770
C         31.66590        39.52554        -0.74569
C         32.86659        41.70269        -0.45977
C         31.69338        42.41463        -0.68997
C         32.89608        44.57807        -0.24241
C         31.68601        43.91770        -0.85031
C         32.84884        45.95901         0.10175
C         31.60623        46.62030         0.21078
C         32.85122        48.78498         0.61448
C         31.59316        47.99136         0.84220
C         32.82530        50.16502         0.66107
C         31.58995        50.90046         0.52028
C         32.87291        53.00672         0.53037
C         31.64384        52.28383         0.45007
C         35.35459        18.82651         0.49140
C         35.31798        20.22594         0.30470
C         34.09970        20.95386         0.25842
C         35.36261        23.10247         0.18853
C         34.10967        22.38498         0.17102
C         35.34920        24.54183         0.21627
C         34.10713        25.24334         0.15530
C         35.32980        27.38757         0.22582
C         34.09579        26.67179         0.13552
C         35.31432        28.82116         0.19898
C         34.09879        29.52197         0.07792
C         35.35287        31.67338        -0.01090
C         34.10112        30.95307        -0.10064
C         35.38388        33.08149        -0.09094
C         34.22403        33.81071        -0.58093
C         35.34475        35.97420        -0.14243
C         34.14562        35.26897        -0.43401
C         35.32755        37.40459        -0.13999
C         34.10329        38.10697        -0.35957
C         35.31537        40.26227        -0.15745
C         34.09017        39.54372        -0.33306
C         35.31659        41.69464        -0.12360
C         34.10334        42.41682        -0.23947
C         35.33113        44.53774         0.14531
C         34.09799        43.84569        -0.11604
C         35.33899        45.95320         0.32846
C         34.09331        46.66651         0.37222
C         35.34046        48.78643         0.59936
C         34.09913        48.06141         0.56494
C         35.35039        50.20274         0.71147
C         34.07381        50.90985         1.07526
C         35.34137        53.09220         0.89751
C         34.07609        52.38198         0.76256
C         35.38952        54.48866         1.10881
C         37.80729        18.80771         0.63935
C         36.54407        18.13232         0.60239
C         37.83454        20.21383         0.46973
C         36.60535        20.92270        -0.04632
C         37.83594        23.10364         0.24726
C         36.59027        22.41103         0.19480
C         37.83705        24.55598         0.28853
C         36.58126        25.25954         0.28285
C         37.79699        27.42150         0.48288
C         36.56651        26.68816         0.32697
C         37.78885        28.83130         0.52973
C         36.54705        29.55083         0.35293
C         37.72161        31.69583         0.86002
C         36.53379        30.94758         0.33273
C         37.77224        33.14252         0.46859
C         36.58127        33.83093         0.18794
C         37.77658        35.97733         0.33344
C         36.56301        35.26313         0.10699
C         37.77318        37.42454         0.25126
C         36.54499        38.12322         0.03087
C         37.77272        40.26540         0.02193
C         36.53990        39.55045        -0.02191
C         37.78027        41.68694         0.01855
C         36.55257        42.40322         0.01021
C         37.80219        44.52557         0.25210
C         36.55928        43.82486         0.13712
C         37.82168        45.93646         0.44420
C         36.57245        46.64484         0.47727
C         37.79172        48.79536         0.67735
C         36.57290        48.07655         0.56251
C         37.78424        50.18788         0.69857
C         36.55844        50.91209         0.69382
C         37.79026        53.07305         0.91459
C         36.56689        52.37502         0.83076
C         37.82634        54.44971         1.24737
C         36.59337        55.14110         1.33121
C         40.23005        15.98277         1.17090
C         39.05138        16.66762         1.01115
C         40.25660        18.81079         0.93920
C         39.02658        18.08972         0.87444
C         40.27235        20.23112         0.79905
C         39.04888        20.93480         0.56479
C         40.33680        23.03003         0.26236
C         39.04428        22.36108         0.36336
C         40.33780        24.61076         0.25251
C         39.04184        25.28903         0.38700
C         40.26558        27.42094         0.74442
C         39.04714        26.70942         0.56041
C         40.26337        28.84752         0.80578
C         39.02359        29.55902         0.66469
C         40.23701        31.70331         0.81046
C         39.02557        30.96788         0.70324
C         40.22067        33.12193         0.81144
C         39.00470        33.84053         0.59821
C         40.24111        35.98389         0.75253
C         38.97591        35.26649         0.54360
C         40.24534        37.47668         0.60671
C         38.97766        38.15103         0.30890
C         40.25100        40.24267        -0.02251
C         39.00469        39.55367         0.09854
C         40.25159        41.67120        -0.06439
C         39.02416        42.38728         0.03742
C         40.26240        44.51916         0.10934
C         39.03164        43.80805         0.14918
C         40.27368        45.94021         0.32345
C         39.07039        46.62288         0.57035
C         40.32240        48.82001         0.58303
C         39.07623        48.07263         1.01764
C         40.31624        50.19071         0.53036
C         39.07647        50.87484         1.09779
C         40.32592        53.03491         0.86108
C         39.04947        52.34935         0.54085
C         40.32773        54.35987         1.42597
C         39.10213        55.09153         1.54900
C         40.35935        57.01357         2.38620
C         39.15955        56.42002         2.03311
C         42.70164        15.98569         1.36091
C         41.47689        16.67669         1.21651
C         42.72129        18.80415         1.20376
C         41.48283        18.09735         1.11629
C         42.71001        20.22756         1.18550
C         41.52237        20.93495         0.92655
C         42.76365        23.08441         0.81516
C         41.55603        22.35939         0.71183
C         42.76654        24.53857         0.78970
C         41.56050        25.27782         0.67365
C         42.70497        27.40044         1.13370
C         41.53309        26.70932         0.87537
C         42.71347        28.87074         1.44908
C         41.46694        29.58602         1.00153
C         42.74102        31.71489         0.95758
C         41.48406        30.98638         0.94302
C         42.76461        33.11547         0.89309
C         41.49076        33.88720         1.12981
C         42.76584        36.02031         0.57935
C         41.49976        35.22161         0.38794
C         42.74828        37.40803         0.39022
C         41.51040        38.14413         0.26632
C         42.74769        40.18881        -0.33479
C         41.47831        39.49653        -0.05985
C         42.74681        41.69020        -0.37280
C         41.46878        42.40966        -0.16951
C         42.72124        44.55146        -0.49129
C         41.47199        43.80057        -0.11068
C         42.72425        45.98130        -0.01996
C         41.55281        46.62918         0.29055
C         42.78221        48.81029         0.14392
C         41.61617        48.07108         0.72908
C         42.70490        50.19969        -0.08386
C         41.52039        50.95545         0.25176
C         42.77641        53.09885         0.74922
C         41.53057        52.36775         0.53177
C         42.82666        54.15313         1.82083
C         41.55167        54.96555         1.81267
C         42.83852        56.91528         2.59173
C         41.58105        56.29722         2.28660
C         43.90777        16.67403         1.36596
C         45.21975        18.80875         1.22859
C         43.94873        18.07933         1.27692
C         45.22992        20.19979         1.31633
C         43.96155        20.96448         1.57851
C         45.19861        23.08545         1.12191
C         43.98410        22.39397         1.08532
C         45.21064        24.52943         1.10640
C         43.98405        25.22247         1.03822
C         45.21771        27.39592         0.95308
C         43.98186        26.67203         1.42397
C         45.20651        28.84123         0.86160
C         43.98875        29.57162         1.03576
C         45.21007        31.71722         0.88613
C         43.98992        30.99224         0.94509
C         45.22932        33.12846         0.78508
C         43.98214        33.83959         0.77062
C         45.23380        35.95219         0.59031
C         44.00026        35.27984         0.67191
C         45.29770        37.46133         0.62826
C         43.99087        38.14928         0.30561
C         45.26632        40.21061        -0.19375
C         44.00568        39.48171        -0.02567
C         45.26859        41.65613        -0.21741
C         43.99369        42.37531         0.14788
C         45.20731        44.53211        -0.22159
C         44.01294        43.84011        -0.16926
C         45.19905        45.98727        -0.24392
C         43.99095        46.68735        -0.08220
C         45.22649        48.82633        -0.30563
C         43.99483        48.11842        -0.07034
C         45.16592        50.24810        -0.49067
C         43.90088        50.80270        -0.59224
C         45.25748        53.20545         0.47785
C         43.92633        52.82776         0.06316
C         45.31538        54.39245         1.27825
C         44.09340        54.98879         1.75284
C         44.04222        56.29248         2.28177
C         47.62955        18.84190         0.71848
C         46.45202        18.12528         1.01592
C         47.71494        20.21279         0.85546
C         46.54356        20.90463         1.56832
C         47.55537        23.18343         1.58684
C         46.43911        22.40670         1.36850
C         47.69182        24.57287         1.24731
C         46.44175        25.25915         1.14030
C         47.67085        27.32769         0.56128
C         46.39863        26.67826         0.90919
C         47.65953        28.84072         0.43650
C         46.41324        29.54297         0.69590
C         47.72753        31.69772         0.67266
C         46.49186        30.97544         1.14276
C         47.73211        33.10430         0.61597
C         46.47451        33.84151         0.69119
C         47.71825        35.98758         0.39383
C         46.46780        35.24867         0.56567
C         47.72755        37.32074         0.04856
C         46.40315        37.97753        -0.29130
C         47.70294        40.15094        -0.61318
C         46.44158        39.48691        -0.29031
C         47.70770        41.67837        -0.65080
C         46.44540        42.38229        -0.35678
C         47.68252        44.53710        -0.38831
C         46.46808        43.82076        -0.27910
C         47.66714        45.96221        -0.42864
C         46.43494        46.69641        -0.36318
C         47.68518        48.82652        -0.92585
C         46.43424        48.11446        -0.43429
C         47.70443        50.35158        -0.67227
C         46.39520        51.11434        -0.55996
C         47.68441        53.07899         0.34893
C         46.42251        52.48372         0.08373
C         47.72832        54.32594         1.03235
C         46.59669        54.95179         1.51418
C         50.10170        20.27382        -0.25892
C         48.83609        20.98764         0.17684
C         50.19647        23.07699         0.37920
C         49.32400        22.19855         0.93555
C         50.18001        24.51111         0.67999
C         48.96011        25.19198         1.00989
C         50.15467        27.39359         0.44700
C         48.96366        26.70817         1.06065
C         50.14697        28.81931         0.33192
C         48.94224        29.55331         0.50291
C         50.16723        31.66925         0.28051
C         48.94036        30.97273         0.50349
C         50.17704        33.09174         0.28834
C         48.96441        33.79577         0.47897
C         50.23165        35.94948         0.14687
C         49.00903        35.28020         0.72692
C         50.21107        37.36284        -0.04112
C         48.96919        38.06224        -0.10033
C         50.18789        40.18982        -0.43401
C         48.97655        39.45171        -0.36924
C         50.19396        41.64079        -0.43064
C         48.97696        42.36981        -0.41015
C         50.15692        44.49388        -0.29911
C         48.95632        43.80749        -0.35853
C         50.16584        45.94897        -0.48048
C         48.89586        46.71043        -0.40719
C         50.14650        48.82907        -0.11326
C         48.91592        48.09150        -0.44928
C         50.18605        50.30223        -0.18093
C         48.96507        51.01200        -0.23718
C         50.19183        53.05731         0.18769
C         48.94735        52.39679         0.05729
C         51.14742        21.01535        -0.65753
C         52.46484        23.21442        -0.62227
C         51.10448        22.53793        -0.71460
C         52.55426        24.53657        -0.10447
C         51.36038        25.22658         0.37476
C         52.57502        27.35215         0.09306
C         51.37407        26.67392         0.32411
C         52.55733        28.75888        -0.41830
C         51.35185        29.52664         0.05468
C         52.60194        31.64284        -0.19653
C         51.37268        30.93253         0.04689
C         52.59378        33.05247        -0.23383
C         51.41538        33.78534         0.02670
C         52.65702        35.93398        -0.27328
C         51.41445        35.22800        -0.04776
C         52.66469        37.36393        -0.28806
C         51.43184        38.07340        -0.24894
C         52.66798        40.19824        -0.48545
C         51.42903        39.49201        -0.37825
C         52.66846        41.63513        -0.50877
C         51.44291        42.32865        -0.36785
C         52.68867        44.51672        -0.32595
C         51.43519        43.77523         0.05372
C         52.73357        45.91452        -0.27809
C         51.46543        46.66546        -0.42303
C         52.73514        48.82595        -0.11137
C         51.45854        48.09747        -0.03128
C         52.71048        50.23488        -0.04508
C         51.42969        50.96800        -0.02827
C         51.39477        52.37438         0.09490
C         54.85302        23.25221        -1.09974
C         53.62079        22.61601        -1.15164
C         54.98412        24.56073        -0.55475
C         53.79577        25.21817        -0.11652
C         55.08318        27.39095        -0.03475
C         53.85412        26.64169         0.40746
C         55.08763        28.75997        -0.22867
C         53.85123        29.51201        -0.25137
C         55.09625        31.63323        -0.44316
C         53.84247        30.90222        -0.31191
C         55.10409        33.03236        -0.54987
C         53.81105        33.76654        -0.77381
C         55.10075        35.92183        -0.43682
C         53.86377        35.22873        -0.42120
C         55.11516        37.34698        -0.41447
C         53.89376        38.07170        -0.40835
C         55.14375        40.21175        -0.64236
C         53.89862        39.50312        -0.50054
C         55.14099        41.64737        -0.84610
C         53.90652        42.32121        -0.72866
C         55.17767        44.53119        -0.87319
C         53.86778        43.78487        -0.79232
C         55.22079        45.84036        -0.09971
C         53.93999        46.63944        -0.24110
C         55.18600        48.78229        -0.00793
C         53.95515        48.07629        -0.13804
C         55.15372        50.18252         0.01660
C         53.95670        50.89912        -0.02482
C         57.50454        24.52353        -0.66148
C         56.26423        25.19410        -0.43275
C         57.52951        27.29418        -0.66706
C         56.36544        26.61276         0.07502
C         57.56641        28.79479        -0.56159
C         56.33940        29.49688        -0.42683
C         57.54001        31.62098        -1.01561
C         56.31328        30.89803        -0.53441
C         57.57119        33.07924        -0.64684
C         56.34113        33.76873        -0.56389
C         57.57392        35.90999        -0.42510
C         56.33993        35.19833        -0.48622
C         57.56484        37.33706        -0.35164
C         56.35996        38.05597        -0.41397
C         57.58886        40.16883        -0.87201
C         56.35543        39.49748        -0.55724
C         57.55423        41.50998        -1.36134
C         56.37612        42.34812        -1.16943
C         57.55108        44.64263        -1.41679
C         56.43984        43.77464        -1.12776
C         57.54396        46.05201        -1.00169
C         56.45843        46.64207        -0.37308
C         57.71657        48.79619        -0.10163
C         56.48210        48.01971         0.25030
C         58.72952        25.14119        -0.60054
C         59.99087        27.31605        -1.04532
C         58.86953        26.61723        -0.31046
C         59.97460        28.66201        -1.14089
C         58.79644        29.46246        -0.80265
C         60.03099        31.63352        -0.80349
C         58.83072        30.87712        -0.80767
C         60.02882        33.01072        -0.72908
C         58.81026        33.77923        -0.62491
C         60.04735        35.95358        -0.43246
C         58.81420        35.19350        -0.48268
C         60.07357        37.29763        -0.29747
C         58.83123        38.11846        -0.09702
C         59.95185        39.96420        -1.44421
C         58.81315        39.43760        -0.84630
C         59.87765        41.18862        -2.12667
C         58.70479        41.93253        -2.07361
C         59.72651        45.09278        -2.54037
C         58.65365        44.26026        -2.23651
C         59.77102        46.39829        -2.02341
C         58.70615        46.88236        -1.27718
C         58.73422        48.24629        -0.79620
O         47.68213        40.88642        -1.89234
O         39.16025        50.77457         2.47118
O         43.81290        52.08895        -1.12766
O         47.67181        27.91810        -0.74868
O         50.70779        48.36150         1.19941
O         40.29680        36.81211         1.94182
O         42.83835        40.94922        -1.61128
O         47.12181        51.06797        -1.83174
O         25.83531        32.11561        -2.86199
O         26.56955        42.84032         0.79658
O         50.88678        46.38038        -1.74337
O         40.48880        23.81707        -0.96117
O         54.34299        44.45547        -2.04980
O         58.63841        43.04683        -2.92034
O         29.83314        42.22153        -2.28868
O         28.26132        33.65660         0.58039
O         28.16912        36.56800        -2.78584
O         24.88261        44.36960        -1.98369
O         48.68441        22.53875         2.13773
O         33.68700        33.30143        -1.84207
O         52.38275        28.62653        -1.89457
H         52.36181        29.53575        -2.26420
O         25.63176        37.44907        -3.49914
H         26.51517        37.06311        -3.71842
O         31.79925        44.16034        -2.30514
H         31.09132        43.61067        -2.72484
O         42.70866        28.98151         2.92981
H         43.31565        28.26458         3.25397
O         53.91959        26.57581         1.88549
H         54.87644        26.61479         2.13014
O         50.52599        22.86626        -2.02021
H         50.53146        23.84354        -2.10934
O         38.99805        52.11056        -0.90269
H         38.98717        52.98144        -1.35255
O         57.38944        31.63197        -2.50937
H         58.10485        32.20581        -2.85973
O         58.81153        38.48209         1.33105
H         58.77366        37.64726         1.84390
O         42.67787        44.61246        -1.96616
H         43.49250        45.06982        -2.26638
O         45.67691        37.83769         1.98449
H         44.97366        37.52467         2.59156
O         41.84306        48.02795         2.18484
H         40.94563        47.93402         2.60622
O         44.10711        26.66215         2.93062
H         43.50235        25.96212         3.26056
O         53.62538        33.75086        -2.24666
H         52.82513        34.28352        -2.44347
O         56.51176        47.82727         1.72777
H         57.42655        47.56257         1.96494
O         47.67907        48.64196        -2.37354
H         47.25536        49.44788        -2.75575
O         51.45980        43.74604         1.54869
H         50.71137        43.18388         1.84313
O         36.69894        20.78925        -1.52904
H         36.72870        19.82810        -1.72591
O         28.90932        47.76215         2.19522
H         29.81687        47.54170         2.53209
O         57.26252        27.02844        -2.07318
H         57.89863        27.55201        -2.60486
O         49.16094        35.40768         2.19420
H         49.08770        36.36171         2.41111
O         37.49364        31.73322         2.33658
H         38.22740        32.25628         2.72633
O         48.19951        21.51774        -1.03428
H         48.90235        21.94878        -1.58418
O         34.02234        50.84881         2.56178
H         33.36415        51.51435         2.85577
O         55.28852        45.43838         1.30846
H         55.53185        46.25419         1.81807
O         41.41313        34.90114        -1.02915
H         41.72603        35.67151        -1.54774
O         43.90360        21.08317         3.06069
H         44.83587        21.04905         3.38636
O         46.79420        20.71894         3.02368
H         47.63213        21.20380         3.21566
O         48.99916        27.06402         2.49116
H         49.81365        26.67403         2.87454
O         56.64912        26.51038         1.53299
H         56.82125        25.56470         1.73452
O         27.57216        28.99453         1.52480
H         27.46429        29.95559         1.69307
O         41.45054        34.18779         2.55447
H         41.55695        33.34684         3.04633
O         46.62969        30.92662         2.62434
H         45.82443        30.48923         2.97677
O         43.85346        42.27218         1.61510
H         44.57815        42.79246         2.02280
O         42.87042        53.46034         3.12071
H         42.77312        54.14139         3.81942
O         46.05482        37.57830        -1.64624
H         46.61590        38.08803        -2.26829
O         39.14225        48.08688         2.49157
H         39.09107        49.06887         2.73529
O         31.61294        47.72032         2.32080
H         32.03140        48.49581         2.75565
O         59.20959        26.79030         1.09445
H         58.36932        26.91532         1.59748
O         31.58166        31.16514         1.70328
H         30.78557        30.69269         2.02898
H         22.07329        26.76725        -0.86773
H         22.07669        29.18437        -1.33510
H         22.14041        31.04567        -1.84346
H         22.14124        33.43911        -2.14389
H         22.09787        35.38512        -1.87878
H         22.06868        37.79497        -1.57578
H         22.03510        39.69261        -1.56392
H         22.00143        42.09844        -1.16791
H         21.93799        43.97744        -0.48322
H         21.98221        46.37276        -0.01474
H         25.39065        23.43929        -0.20600
H         23.28512        24.67107        -0.46210
H         25.28780        49.76481         0.49299
H         23.17552        48.51121         0.24506
H         27.02515        22.50746        -0.10695
H         26.97053        50.70227        -0.06826
H         29.11865        21.31041         0.04210
H         29.08003        51.91307         0.06662
H         32.81107        19.18455         0.39570
H         30.72319        20.39451         0.26760
H         32.83340        54.09514         0.37861
H         30.72752        52.86912         0.29671
H         34.41978        18.25845         0.58922
H         34.45534        55.06483         1.16524
H         36.49977        17.04554         0.74591
H         36.57349        56.21469         1.56154
H         40.22572        14.88697         1.26204
H         38.11360        16.09788         0.97548
H         40.37308        58.05071         2.75094
H         38.23532        57.00331         2.14125
H         42.69401        14.88964         1.44726
H         42.84083        57.94517         2.97559
H         44.84045        16.10085         1.45471
H         44.97196        56.86924         2.39614
H         48.47997        18.27565         0.30933
H         46.46853        17.03236         0.91473
H         48.70025        54.78647         1.25118
H         46.70168        55.87577         2.09873
H         50.16505        19.17538        -0.27716
H         50.22699        54.14372         0.34131
H         52.05641        20.50777        -1.01302
H         52.32773        52.94736         0.17829
H         55.73152        22.74103        -1.51534
H         53.56219        21.62160        -1.61539
H         56.08967        50.75128         0.09807
H         54.00578        51.99566         0.00495
H         57.48191        23.44836        -0.89720
H         57.81912        49.81752         0.29146
H         59.64266        24.54397        -0.74419
H         60.87752        26.74305        -1.35653
H         60.83955        29.18590        -1.57498
H         60.99716        31.10798        -0.79927
H         60.99620        33.52886        -0.70486
H         61.00337        35.41625        -0.50434
H         61.04568        37.80428        -0.20876
H         60.89604        39.40410        -1.45235
H         60.73021        41.55735        -2.71085
H         60.51970        44.72459        -3.20283
H         60.62834        47.05040        -2.24201
H         59.63658        48.83954        -1.01002
