         429
 CSIRO Nanostructure Databank - Neutral Graphene Oxide Data Set
C          1.33150         3.92365         3.13070
C          0.14443         4.61567         3.04859
C          1.23717         6.62087         2.08753
C          0.08717         5.97035         2.68884
C          1.25386         8.05149         1.75543
C          0.18520         8.88018         2.06232
C          1.25817        10.83909         1.03095
C          0.14150        10.21960         1.64752
C          1.23291        12.24062         0.67573
C         -0.02529        12.93096         0.52395
C          1.08215        15.05304        -0.05938
C         -0.11095        14.21137         0.07400
C          0.99953        16.30755        -0.93964
C         -0.18208        17.19325        -0.64444
C          1.07940        19.30856        -0.63589
C         -0.13361        18.56126        -0.63767
C          1.12648        20.73792        -0.49348
C         -0.07698        21.48465        -0.41739
C          1.14543        23.57144        -0.17500
C         -0.06272        22.86122        -0.28362
C          1.12266        25.08973        -0.01677
C         -0.05714        25.71886        -0.71230
C          1.19879        27.76037        -1.19515
C         -0.00510        26.95422        -1.24837
C          1.20821        29.11902        -1.50740
C          0.08166        29.76530        -2.09569
C          1.36494        31.80151        -2.37913
C          0.16026        31.06426        -2.54239
C          1.36429        34.04754        -2.08020
C          0.17536        34.79603        -2.05526
C          1.19211        36.31036        -0.46460
C          0.07218        35.89677        -1.21738
C          1.13773        37.51516         0.31142
C          3.72644         3.70036         2.50290
C          2.67305         4.61110         3.10746
C          3.82278         6.79931         2.05403
C          2.62280         5.92354         2.26544
C          3.73959         8.00342         1.34146
C          2.40315         8.58262         0.92594
C          3.64836        10.73816         0.46490
C          2.44687        10.09170         0.84058
C          3.64588        12.14115         0.18416
C          2.42606        12.87603         0.29454
C          3.64380        14.91580        -0.56241
C          2.42479        14.32215         0.02344
C          3.62821        16.37151        -0.85732
C          2.32430        17.09403        -0.92047
C          3.62720        19.24169        -0.30002
C          2.32269        18.52961        -0.47745
C          3.66491        20.71916        -0.66314
C          2.36467        21.44424        -0.37149
C          3.62141        23.55515         0.14655
C          2.35724        22.83643        -0.16077
C          3.67549        25.06553        -0.08609
C          2.41852        25.75091        -0.44797
C          3.68743        27.77803        -1.05298
C          2.43778        27.07723        -0.85869
C          3.71187        29.16318        -1.21641
C          2.41420        29.94058        -1.08723
C          3.66489        32.10528        -1.47714
C          2.48339        31.32302        -1.71580
C          3.67010        33.49198        -1.19107
C          2.46897        34.32801        -1.25084
C          3.57200        36.07198         0.11952
C          2.40293        35.55153        -0.51019
C          3.50956        37.31573         0.81935
C          2.25230        37.99764         0.93790
C          6.21035         3.59579         1.89831
C          5.05052         4.09729         2.51659
C          6.25525         6.71951         1.64078
C          5.12515         6.31258         2.34053
C          6.18141         7.98029         0.97942
C          4.93229         8.66681         0.92599
C          6.09470        10.67433         0.05770
C          4.89324        10.01502         0.42628
C          6.08073        12.07737        -0.23850
C          4.86160        12.79655        -0.18977
C          6.08541        14.86987        -0.93051
C          4.81797        14.19905        -0.56264
C          6.12268        16.39831        -0.89738
C          4.88394        17.13115        -0.62681
C          6.16141        19.22106        -0.36023
C          4.91194        18.49668        -0.45803
C          6.11916        20.64918        -0.11674
C          4.92939        21.36304        -0.13232
C          6.22700        23.58739         0.10485
C          4.90654        22.78905         0.22286
C          6.16106        24.99869        -0.33328
C          4.96781        25.67252        -0.45849
C          6.21090        27.73784        -1.16694
C          4.92964        26.95096        -1.27318
C          6.17721        29.18205        -1.29310
C          4.93569        29.87047        -1.33760
C          6.16786        32.02517        -1.02249
C          4.97002        31.35325        -1.63448
C          6.10804        33.37724        -0.62342
C          4.86335        34.09371        -0.63948
C          5.99974        35.98142         0.50957
C          4.81673        35.38147        -0.01875
C          5.92763        37.24512         1.19027
C          4.68112        37.87765         1.35517
C          8.58183         3.63132         1.50780
C          7.42627         4.35188         1.74117
C          8.66374         6.45924         0.93056
C          7.48658         5.86523         1.65452
C          8.54151         7.76845         0.22383
C          7.34006         8.59088         0.40728
C          8.58617        10.59583        -0.30829
C          7.32904         9.93020        -0.00602
C          8.56884        12.04843        -0.47448
C          7.33981        12.76185        -0.47685
C          8.56590        14.88962        -0.74845
C          7.35256        14.16190        -0.70909
C          8.58464        16.34642        -0.71924
C          7.39902        17.08388        -0.67348
C          8.65556        19.17697        -0.39624
C          7.39236        18.50566        -0.45396
C          8.69843        20.61289        -0.07209
C          7.40304        21.37377         0.11824
C          8.63116        23.47800        -0.50167
C          7.45382        22.82713        -0.14865
C          8.59639        24.89629        -0.80244
C          7.41330        25.61681        -0.75827
C          8.67858        27.73381        -1.16562
C          7.40387        27.04648        -1.04522
C          8.69161        29.20112        -1.52257
C          7.39506        29.91032        -1.25692
C          8.61170        31.99198        -0.65717
C          7.38726        31.30864        -0.99822
C          8.56439        33.35100        -0.25433
C          7.30859        34.02575        -0.17588
C          8.46422        35.97544         0.81707
C          7.25995        35.33491         0.36664
C          8.36156        37.22731         1.52798
C          7.11347        37.82841         1.71136
C         11.12136         3.59847         1.27016
C          9.82746         4.19296         0.95149
C         11.13371         6.32941         0.30630
C          9.83550         5.63111         0.49680
C         11.15218         7.74249        -0.01686
C          9.84476         8.44672        -0.19697
C         11.10036        10.64861        -0.14153
C          9.79250         9.90424        -0.28663
C         11.04048        11.95582        -0.92643
C          9.78383        12.75650        -0.64133
C         11.05195        14.90676        -0.57422
C          9.78353        14.15851        -0.70108
C         11.04325        16.35723        -0.79062
C          9.84581        17.05529        -0.71458
C         11.12742        19.20806        -0.59040
C          9.86038        18.49602        -0.60657
C         11.13858        20.63601        -0.54254
C          9.92254        21.36217        -0.41570
C         11.13072        23.46807        -0.73371
C          9.88866        22.75538        -0.56762
C         11.12515        24.87320        -0.89899
C          9.85020        25.54990        -1.33598
C         11.16087        27.77431        -1.43481
C          9.85516        27.04948        -1.16002
C         11.12451        29.22078        -0.96906
C          9.91889        29.90472        -0.99587
C         11.05863        32.01105        -0.40823
C          9.85470        31.29643        -0.66857
C         11.00843        33.38889        -0.09657
C          9.77729        34.05308         0.06074
C         10.95337        36.07533         0.99923
C          9.72570        35.38952         0.60462
C         10.81304        37.25045         1.87900
C          9.53787        37.77040         2.10993
C         13.56303         3.69145         1.42999
C         12.29957         4.24295         0.96747
C         13.62122         6.21208         0.09278
C         12.30204         5.59110         0.40672
C         13.63719         7.66806        -0.34866
C         12.33621         8.40817        -0.32129
C         13.47177        10.53121        -0.90882
C         12.33052         9.84196        -0.54764
C         13.52435        11.99426        -0.89287
C         12.34559        12.69869        -0.78023
C         13.61769        14.85799        -0.82801
C         12.35986        14.15139        -0.59630
C         13.62533        16.30438        -1.02634
C         12.30590        17.07533        -0.99822
C         13.61228        19.18931        -0.69208
C         12.34965        18.51671        -0.74075
C         13.62741        20.61283        -0.66948
C         12.37887        21.34604        -0.65955
C         13.63067        23.52349        -0.95260
C         12.36164        22.74719        -0.71006
C         13.57087        24.90159        -0.27516
C         12.32283        25.63805        -0.74863
C         13.54136        27.73412        -0.34861
C         12.33971        27.00859        -0.88579
C         13.58564        29.21730        -0.58453
C         12.34193        29.92076        -0.65687
C         13.53406        32.01998        -0.13668
C         12.31816        31.31933        -0.44330
C         13.51906        33.39964         0.19972
C         12.27118        34.19583        -0.11642
C         13.45636        36.10070         0.86791
C         12.17514        35.48955         0.64771
C         13.21966        37.68274         2.37096
C         11.87034        37.77549         2.70562
C         16.03000         3.82181         1.50737
C         14.75509         4.16822         0.94782
C         15.98659         5.58005        -0.70042
C         14.65325         5.10427        -0.23845
C         15.94257         7.73140        -1.49710
C         14.76664         8.33539        -1.06182
C         15.99237        10.57810        -1.36873
C         14.70397         9.80345        -1.25208
C         16.01309        12.03574        -1.11996
C         14.79951        12.70370        -0.92192
C         16.06172        14.85344        -0.92901
C         14.81413        14.14021        -0.86729
C         16.06002        16.27314        -0.75389
C         14.87913        17.02652        -0.75964
C         16.06930        19.17375        -0.40298
C         14.85724        18.45761        -0.62516
C         16.07013        20.58216        -0.41317
C         14.86605        21.31418        -0.61127
C         16.10026        23.44534        -0.56819
C         14.89766        22.75590        -0.63261
C         16.13995        24.92996        -0.30845
C         14.84708        25.66311        -0.56945
C         16.05537        27.78735        -0.95405
C         14.82509        27.00909        -0.66937
C         16.07130        29.21123        -0.52641
C         14.79107        29.90748        -0.42364
C         15.97084        32.01755         0.16700
C         14.77302        31.32129        -0.15351
C         15.93285        33.33018         0.66798
C         14.68521        34.02661         0.67536
C         15.86512        36.19252         1.54983
C         14.64281        35.42678         1.05712
C         15.61312        37.11256         2.77854
C         14.36093        37.66309         3.18584
C         18.50177         4.10671         1.64093
C         17.21815         4.35607         1.03202
C         18.44215         5.72975        -0.64758
C         17.19584         5.21955        -0.14429
C         18.42952         7.73826        -1.60606
C         17.20201         8.40712        -1.54792
C         18.51910        10.54154        -1.44808
C         17.25674         9.82650        -1.04214
C         18.48023        12.02364        -1.75327
C         17.24455        12.73959        -1.23722
C         18.52460        14.89160        -1.50719
C         17.27200        14.13369        -1.12052
C         18.59029        16.28781        -0.92460
C         17.34942        16.92856        -0.47761
C         18.63331        19.12370        -0.42199
C         17.34680        18.43497        -0.21936
C         18.66721        20.57146        -0.20075
C         17.31885        21.32965        -0.16341
C         18.58127        23.45339        -0.55790
C         17.35655        22.76633        -0.44384
C         18.56254        24.88758        -0.86411
C         17.38672        25.58374        -0.85363
C         18.63852        27.79821        -0.97721
C         17.34927        27.04310        -1.14549
C         18.58212        29.24202        -0.48834
C         17.24898        29.86918        -0.28886
C         18.47615        31.91683         0.65148
C         17.25383        31.31168         0.02151
C         18.34237        33.23350         1.32535
C         17.12096        33.97207         1.23252
C         18.16058        35.75068         2.54054
C         17.04966        35.26091         1.80012
C         18.02300        36.93842         3.33966
C         16.72091        37.49441         3.52448
C         19.64217         4.71935         1.19649
C         20.80500         6.37944        -0.29577
C         19.63923         5.61150         0.05631
C         20.81367         7.61571        -0.92351
C         19.67545         8.37084        -1.34187
C         20.95581        10.56456        -1.55112
C         19.70467         9.83281        -1.46477
C         20.98493        11.92535        -1.46298
C         19.78434        12.72600        -1.41941
C         21.02105        14.87074        -1.19852
C         19.80462        14.10448        -1.30094
C         21.01482        16.23173        -1.10418
C         19.78689        16.97922        -0.90845
C         21.01811        19.19214        -0.86719
C         19.80690        18.42885        -0.69282
C         21.04162        20.56399        -0.82228
C         19.87408        21.33576        -0.52757
C         21.06079        23.50759        -0.73233
C         19.83075        22.74437        -0.57251
C         21.07970        24.81847        -1.03325
C         19.83189        25.60270        -1.31612
C         20.94047        27.62606        -0.17013
C         19.86049        27.01239        -0.73367
C         20.86010        28.95816         0.37396
C         19.74031        29.73813         0.28601
C         20.81742        31.75443         1.43615
C         19.55692        30.97300         1.15928
C         20.74801        33.04103         1.83367
C         19.48815        33.77378         1.92432
C         20.49900        35.60706         3.28748
C         19.40146        35.04233         2.58028
C         20.36526        36.79889         3.98267
C         19.12386        37.44864         4.04168
O          6.05536        15.64118        -2.17081
O          1.89459        15.16381         1.13402
O          5.66586        23.18321         1.39705
O          8.17817        20.92258         1.27638
O          3.05247        16.84418        -2.16839
O          8.98940         7.73015        -1.16033
O          8.58590         6.52072         2.39270
O         18.84331        28.91073        -1.89408
O          1.90037         5.77263         1.03547
O          1.44419        33.03417        -3.05488
O         15.29139        10.19126        -2.57473
O         14.05434         7.23189         1.03508
O         18.01871        20.95551         1.06315
O          9.60331         4.58433        -0.48280
O         13.47905        37.49467         0.99517
O         18.29375        32.00899        -0.78205
O         15.92794         6.35759        -1.85463
O         12.94761        16.70469        -2.28960
O         17.38477        17.47822         0.89059
O         18.44636         6.35731        -1.90289
O          5.29335         5.28424         3.26740
O         16.57639        27.48567        -2.30655
O          2.89131        18.80728         0.87703
O         11.73762        14.57268         0.71056
O          3.53881        24.48745         1.27199
O          2.97186         4.95099         4.47847
H          3.94604         5.09122         4.54170
O         17.27341         9.76970         0.43152
H         18.13914         9.40034         0.70822
O          4.84540        26.49439        -2.67866
H          4.95320        27.28582        -3.24872
O          3.77548        20.75069        -2.12838
H          4.51482        20.16107        -2.39099
O         11.25287        10.98001         1.26227
H         11.44126        10.15755         1.76037
O         19.04420        30.47875         2.44127
H         19.76936        29.99586         2.89073
O          8.85108        29.20672        -3.00462
H          8.66373        30.11904        -3.31516
O          0.76729        15.80064        -2.28047
H          1.57345        16.01833        -2.81129
O         16.28043        37.09031         0.48033
H         15.49911        37.64862         0.26777
O          0.96715        25.36681         1.41257
H          1.79592        25.03909         1.84177
O          9.83312        25.35767        -2.79917
H         10.49315        25.99679        -3.16777
O         14.09541         4.34703        -1.34913
H         14.31670         4.82535        -2.17776
O         13.40601        27.60123         1.13513
H         14.11854        28.13911         1.54410
O         11.29175        27.79375        -2.89839
H         10.51921        28.32015        -3.23200
O          2.23260        30.19899         0.34836
H          2.08579        29.33385         0.78792
O         13.48756        24.72252         1.16132
H         13.33172        25.62406         1.53688
O         10.93540        11.56460        -2.32693
H         10.89894        12.37364        -2.87830
O         18.41671        15.06050        -2.96504
H         18.33903        14.14936        -3.34407
O         13.67953        23.81473        -2.38269
H         13.66715        22.96448        -2.86978
O         16.27175        25.02484         1.16143
H         15.43114        24.65875         1.53370
O         19.76747        25.76482        -2.76169
H         19.07590        26.42974        -2.96986
O         12.44556        34.59129        -1.53752
H         11.66520        35.13153        -1.78590
O          5.20421        31.43130        -3.10591
H          5.19488        32.38162        -3.35120
O         18.36168        12.14892        -3.22779
H         19.08749        11.61998        -3.62398
O          2.17636         8.10931        -0.45023
H          2.07669         7.12903        -0.38654
H          1.32021         2.87419         3.45884
H         -0.79571         4.10085         3.29875
H         -0.84764         6.52916         2.82570
H         -0.67602         8.48283         2.61830
H         -0.75599        10.80796         1.87753
H         -0.95302        12.35294         0.63763
H         -1.08534        14.62237        -0.22583
H         -1.16636        16.70410        -0.60797
H         -1.09022        19.09893        -0.57130
H         -1.04733        20.97610        -0.47589
H         -1.02473        23.38657        -0.23735
H         -1.01922        25.18950        -0.71771
H         -0.91744        27.38084        -1.68773
H         -0.83699        29.19477        -2.28710
H         -0.67811        31.52627        -3.07945
H         -0.65320        34.50876        -2.71544
H         -0.85443        36.48673        -1.18227
H          0.18385        38.05906         0.37019
H          3.40527         2.87616         1.85095
H          2.21145        38.93439         1.51195
H          6.21042         2.56048         1.52727
H          4.62780        38.83930         1.88663
H          8.54107         2.53541         1.60956
H          7.04373        38.77549         2.26665
H         11.14390         2.65609         1.83725
H          9.43579        38.64541         2.76918
H         13.54242         2.92724         2.22155
H         11.58438        38.21145         3.67512
H         16.04808         3.15185         2.37978
H         14.28632        38.04676         4.21582
H         18.54429         3.43412         2.50953
H         16.59704        38.26518         4.30166
H         20.59618         4.54227         1.71438
H         21.76155         6.03476         0.12821
H         21.78547         8.13315        -0.93991
H         21.90106        10.00871        -1.61104
H         21.96158        12.42813        -1.42818
H         21.98807        14.34868        -1.21092
H         21.97767        16.75776        -1.06171
H         21.95490        18.66717        -1.09472
H         21.99151        21.07682        -1.02560
H         22.01682        22.98432        -0.58813
H         22.04408        25.32745        -1.17502
H         21.88203        27.07757        -0.02657
H         21.73078        29.31026         0.94685
H         21.79574        31.25650         1.37057
H         21.67941        33.57268         2.07553
H         21.46587        35.08667         3.30444
H         21.22483        37.21417         4.52699
H         19.00413        38.35481         4.65251
