         300
 CSIRO Nanostructure Databank - Neutral Graphene Oxide Data Set
C         30.54133        31.73540        -1.48634
C         30.45782        32.85541        -0.88916
C         30.43269        35.74570         0.51918
C         30.40100        36.87223         1.01568
C         30.25407        40.05884         0.85331
C         30.18346        41.18585         0.35916
C         33.02537        28.93208        -1.91712
C         31.94919        29.58817        -2.02793
C         33.08733        31.87182        -1.96787
C         31.51762        30.87526        -1.87433
C         32.90407        33.26432        -1.36217
C         31.53844        33.83722        -0.86625
C         32.86803        35.65552         0.52998
C         31.58661        34.90176         0.18851
C         32.83461        36.95143         1.39291
C         31.47271        37.79363         1.39533
C         32.65787        40.22208         1.30490
C         31.40676        39.28639         1.34062
C         32.67826        41.36949         0.26367
C         31.08609        42.02684        -0.42199
C         32.39507        44.16100        -0.15006
C         31.38717        43.44583        -0.16644
C         35.92121        27.62768        -2.43514
C         35.63493        28.93782        -1.83404
C         34.30553        29.55661        -1.54337
C         35.44578        31.86846        -1.28246
C         34.13547        31.06259        -1.17999
C         35.33472        33.26264        -0.73659
C         34.12262        33.92844        -0.82641
C         35.34122        36.10904        -0.27963
C         33.96745        35.42564        -0.50911
C         35.38863        37.25768         0.78378
C         34.05395        37.91475         1.19364
C         35.23604        40.28658         1.19240
C         33.97911        39.42583         1.28402
C         35.14978        41.75828         0.94507
C         33.86891        42.27168         0.32396
C         35.01305        44.62148         0.20848
C         33.76615        43.79844         0.24622
C         35.24657        46.03548        -0.14239
C         38.39673        27.63551        -2.37359
C         37.03682        27.12111        -2.54778
C         38.26730        29.10572        -1.93194
C         36.91012        29.77377        -1.89932
C         38.07791        31.90502        -1.08084
C         36.78968        31.22777        -1.50795
C         37.90640        33.27371        -0.48711
C         36.56679        33.92727        -0.38033
C         37.88003        36.02829        -0.00532
C         36.56114        35.27426        -0.06401
C         37.79457        37.53005         0.30676
C         36.44763        38.27541         0.27589
C         37.74088        40.41014         0.52405
C         36.57542        39.55262         1.12232
C         37.72385        41.85232         1.06404
C         36.41995        42.48076         0.55122
C         37.69383        44.70796        -0.07217
C         36.37482        43.90837         0.11192
C         37.64690        46.19592         0.35110
C         36.29748        46.66397         0.00028
C         40.82736        24.79748        -1.77356
C         39.84202        25.41966        -2.18248
C         40.75213        27.51232        -1.35620
C         39.65541        26.87974        -2.20234
C         40.58444        28.91503        -0.81323
C         39.39711        29.76450        -1.19309
C         40.54109        31.81394        -0.29589
C         39.29498        31.07018        -0.79410
C         40.24095        33.07196         0.54172
C         38.94343        33.79854         0.46785
C         40.19427        35.96117         1.00394
C         38.85133        35.26554         0.92686
C         40.16243        37.43037         1.09340
C         38.93949        38.18007         0.67747
C         40.19857        40.33730         0.79725
C         39.02121        39.64750         0.77720
C         40.21062        41.78971         0.32949
C         38.96384        42.61863         0.63306
C         40.22424        44.69955         0.09058
C         38.94843        43.95866         0.39261
C         40.26210        46.18656         0.37956
C         38.93135        46.94270         0.43552
C         40.22057        48.94842        -0.16043
C         39.17400        48.35976         0.15070
C         43.16926        24.72490        -0.61814
C         42.18917        25.29337        -1.53313
C         43.24244        27.56359        -0.63674
C         42.11678        26.85719        -1.35504
C         42.98502        28.95392        -0.13556
C         41.78784        29.59403        -0.23183
C         42.69499        31.60179         1.09339
C         41.45639        30.87904         0.53123
C         42.55349        33.05691         1.56073
C         41.44018        33.85043         0.93174
C         42.70691        36.01441         0.86304
C         41.40249        35.24664         1.08177
C         42.75945        37.40751         1.53816
C         41.45242        38.19348         1.25327
C         42.78288        40.28883         1.05215
C         41.48832        39.56878         0.57033
C         42.79797        41.80842         0.80934
C         41.50575        42.53928         0.61129
C         42.85541        44.72432         0.34076
C         41.53289        43.96543         0.11304
C         42.78954        46.15011        -0.28148
C         41.57221        46.90791         0.31279
C         42.84344        48.94060        -0.43698
C         41.60254        48.76206         0.33164
C         43.84901        25.30861         0.24247
C         44.83200        27.31910         1.53160
C         43.66122        26.59749         0.91611
C         45.08577        28.82035         1.34279
C         44.26846        29.64297         0.31947
C         45.36078        31.75773         1.18911
C         44.04701        30.97702         1.04534
C         45.23202        33.09571         1.94017
C         43.91217        33.80452         1.71993
C         45.34150        35.92534         1.19973
C         44.00635        35.21488         1.18072
C         45.34056        37.43992         1.41007
C         44.02830        38.09285         0.97418
C         45.22219        40.24549        -0.01945
C         43.99060        39.51692         0.51131
C         45.36884        41.71992         0.37777
C         44.03466        42.44459         0.18641
C         45.28595        44.59381        -0.72510
C         44.01352        43.88680        -0.22035
C         45.40246        46.08996        -0.33471
C         44.15385        46.87878        -0.13521
C         43.90679        48.30686        -0.37569
C         47.16530        27.30851         2.17849
C         46.10043        26.69829         1.93380
C         47.52734        28.66866         2.11877
C         46.39971        29.47179         1.69579
C         47.67828        31.55182         2.28306
C         46.49526        30.85895         1.64815
C         47.81668        33.05512         1.99735
C         46.56291        33.90121         2.23205
C         47.87520        35.92616         1.28838
C         46.60216        35.23637         1.54843
C         47.88140        37.38168         0.88572
C         46.59425        38.17418         0.90491
C         47.69195        40.12268        -0.39700
C         46.53505        39.55279         0.32907
C         47.61246        41.45856        -0.81789
C         46.51859        42.29256        -0.44352
C         47.86987        44.40762        -1.09556
C         46.59940        43.76375        -0.54319
C         47.58885        45.82903        -1.38083
C         46.70717        46.52502        -0.85886
C         50.07131        28.55271         1.73422
C         48.87408        29.23029         2.24397
C         50.21251        31.38031         1.47734
C         49.01562        30.77032         2.15858
C         49.81223        32.56453         0.53516
C         49.02908        33.62339         1.34033
C         49.83825        35.46721        -0.29370
C         49.17788        35.12213         1.03905
C         49.94613        36.94590        -0.59967
C         49.11520        38.00483         0.18086
C         49.99194        39.83087        -1.44017
C         48.70990        39.11884        -0.89330
C         49.69329        41.07395        -2.30907
C         48.60382        41.99344        -1.80616
C         50.01636        43.87803        -2.55120
C         48.73268        43.52874        -1.93873
C         51.09813        29.10798         1.32975
C         52.17470        31.04037        -0.08914
C         51.44195        30.49520         1.06082
C         51.97795        32.22036        -0.44889
C         50.98306        33.21442        -0.27129
C         51.83890        35.22061        -1.54649
C         50.91289        34.49356        -0.72793
C         51.88801        36.38948        -1.94640
C         51.24204        37.56834        -1.27236
C         52.04961        39.59392        -2.65770
C         50.90545        38.74467        -2.18674
C         52.06897        40.77010        -3.02447
C         50.90525        41.66121        -3.09539
C         50.82648        43.11351        -3.08470
O         33.57761        41.40593        -0.85206
O         34.17409        38.61701         2.48153
O         42.57902        26.18166        -2.57068
O         40.59126        38.05871         2.39073
O         49.07685        36.07117        -1.37578
O         32.42549        34.49897         1.29156
O         35.82786        36.40151        -1.60500
O         41.08975        46.47509         1.59405
O         44.37327        33.39825         3.05338
O         36.06538        31.90037        -2.59330
O         35.17165        41.26609         2.29815
O         44.38784        28.29768         2.51141
O         38.40579        33.10456        -1.86095
O         47.73591        44.19445         0.32784
O         37.89343        44.81489        -1.49683
O         32.05057        34.11281        -2.18883
O         40.22278        27.72969        -0.00650
O         47.93820        42.75193        -2.86415
O         34.32245        44.38608         1.45251
O         39.21691        32.89945         1.58682
O         49.80877        40.99578        -3.76371
O         46.78463        39.37041         1.75630
O         45.06562        29.86021        -0.81428
O         48.99205        33.47348         2.78603
O         43.25082        30.82950         2.23447
O         43.67642        42.84085        -1.17593
O         44.84070        35.29747        -0.03978
O         39.35007        27.50650        -3.45941
O         48.92476        32.01932        -0.36660
O         42.11764        42.46415         1.93148
O         43.78985        38.39588        -0.41894
O         38.16711        46.57371         1.62786
O         37.70854        29.78238        -3.11267
O         36.37693        42.82405        -0.86790
O         35.07515        28.89846        -0.49587
O         31.32134        38.57603         2.59706
O         44.99449        46.50202         0.97589
O         49.24366        30.04018         3.39794
O         51.46052        31.34707         2.21909
O         48.17450        37.01189         2.26838
O         41.75884        49.16838         1.62600
H         40.94134        49.00336         2.13809
O         45.14412        44.66335        -2.15958
H         44.68737        43.84553        -2.46638
O         47.28176        31.53156         3.69021
H         47.91682        30.93073         4.16116
O         38.47088        35.92759        -1.32028
H         37.73139        36.08397        -1.95950
O         37.72366        41.81942         2.50221
H         37.58588        42.72294         2.85540
O         36.94918        39.17497         2.45141
H         36.90781        39.98556         3.01049
O         42.60491        36.20332        -0.55763
H         43.49953        36.10437        -0.96241
O         47.98896        38.44660        -1.93833
H         48.62899        38.03853        -2.58025
O         41.55310        39.35557        -0.84975
H         41.22667        40.17610        -1.30009
O         38.32709        35.29301         2.26315
H         38.71571        34.52898         2.74822
O         31.06063        41.70892        -1.75517
H         31.79729        42.15625        -2.22058
O         50.70889        40.43055        -0.36451
H         51.04892        39.73220         0.24680
O         40.19289        41.66720        -1.13079
H         39.29135        41.31849        -1.37211
O         33.38002        31.94249        -3.30408
H         32.97959        32.75136        -3.69096
O         42.57643        26.57696         1.77628
H         42.72866        27.21818         2.50529
O         42.86433        40.09097         2.48510
H         42.45049        40.87680         2.91568
O         42.57980        46.02007        -1.68898
H         42.72175        46.88961        -2.11954
O         45.10006        40.28627        -1.45093
H         44.69449        39.44107        -1.75165
O         32.59963        40.93662         2.54595
H         32.59074        40.27549         3.27246
O         49.91618        38.57580         1.21169
H         49.74525        38.05683         2.03521
O         32.94182        36.45429         2.72066
H         32.97494        37.22414         3.33053
O         33.69689        31.10131         0.18242
H         34.13490        30.37491         0.67925
O         40.87315        44.24614        -1.13795
H         37.73146        43.92595        -1.88881
O         45.38433        37.53689         2.84862
H         45.84549        38.37406         3.08541
O         52.08358        38.05212        -0.24304
H         52.39682        37.30401         0.30639
O         46.55371        34.21444         3.64265
H         46.80970        33.39149         4.12305
O         40.65733        30.46873         1.65263
H         41.26746        30.21070         2.37850
O         35.99067        38.77038        -0.99704
H         35.92382        37.98085        -1.61849
O         44.41678        27.45055        -1.37436
H         44.86766        28.34590        -1.43732
O         50.17100        35.59506         1.97627
H         49.93881        35.21585         2.85679
O         41.27055        32.23986        -1.45765
H         40.64379        32.68531        -2.07200
O         45.70790        41.80439         1.77160
H         46.09682        42.68278         1.96699
O         33.42392        36.09571        -1.66738
H         34.22062        36.28609        -2.23642
O         45.74955        32.21659        -0.12203
H         45.71844        31.40964        -0.72457
O         43.14203        44.82421         1.73373
H         42.44894        45.38065         2.16382
O         42.86007        37.17714         2.93368
H         42.80889        38.04361         3.39338
O         50.22028        38.26288        -3.32764
H         50.09756        39.01867        -3.95262
O         41.96325        32.96570         2.89062
H         42.70981        32.85672         3.52995
O         35.89075        36.61639         1.96268
H         36.06564        37.31794         2.63377
O         37.70559        40.61446        -0.90958
H         37.16127        39.90132        -1.33898
