         344
 CSIRO Nanostructure Databank - Neutral Graphene Oxide Data Set
C          1.42496         2.14712         0.62814
C          1.32187         3.43628         1.04983
C          2.68143         1.48092         0.56860
C          2.50595         4.28409         1.42683
C          1.26763         6.34438         0.58300
C          1.18416         7.68892         0.44928
C          2.53022         5.62156         0.62911
C          2.41484         8.50256         0.71305
C          1.20643        10.70248         0.40920
C          1.20902        12.10548         0.33971
C          2.39147         9.95351         0.27634
C          2.34994        12.82116        -0.01557
C          1.22103        15.03843         0.24243
C          1.25129        16.42150         0.21073
C          2.38739        14.26755        -0.00989
C          2.45443        17.11257        -0.05774
C          2.49381        18.55533        -0.08036
C          3.85202         2.14335         0.94660
C          3.81638         3.51679         1.39435
C          5.09698         1.44647         0.95483
C          5.01641         4.13188         1.72932
C          3.67363         6.31680         0.22604
C          3.66046         7.76491         0.27045
C          4.94945         5.69493        -0.16253
C          4.84491         8.46597         0.24485
C          3.59232        10.60773        -0.03081
C          3.54542        12.04106        -0.52592
C          4.84401         9.90775         0.07707
C          4.82831        12.76711        -0.26809
C          3.60280        14.96602        -0.26665
C          3.63409        16.36160        -0.28831
C          4.85650        14.21650        -0.66351
C          4.92243        17.06804        -0.65286
C          3.67835        19.22852        -0.16277
C          4.93323        18.52427        -0.23792
C          6.30806         2.10773         1.14124
C          6.30103         3.55163         1.34821
C          7.53653         1.43345         0.86521
C          7.45252         4.27809         0.99984
C          6.15491         6.29778         0.14310
C          6.14144         7.75370         0.54469
C          7.43875         5.61620         0.42368
C          7.34039         8.47484        -0.00057
C          6.06405        10.57328        -0.08618
C          6.07390        11.99607        -0.57994
C          7.31076         9.85021        -0.16338
C          7.34604        12.71049        -0.22062
C          6.11181        14.92297        -0.18659
C          6.14552        16.29986        -0.17608
C          7.29083        14.11460         0.31992
C          7.34191        17.02853         0.12783
C          6.12028        19.16151         0.01125
C          7.36290        18.43479         0.12756
C          8.74413         2.11194         0.81946
C          8.76848         3.56471         1.28184
C          9.93363         1.42474         0.47922
C         10.03786         4.31669         0.84641
C          8.60794         6.31507         0.20130
C          8.53183         7.67255        -0.45757
C          9.96478         5.83323         0.65164
C          9.81265         8.47147        -0.42000
C          8.53691        10.57711        -0.44859
C          8.53275        12.02529        -0.33926
C          9.75250         9.87194        -0.53925
C          9.80992        12.71932        -0.14797
C          8.61292        14.83752         0.21010
C          8.60398        16.30668         0.55301
C          9.79726        14.15825         0.10989
C          9.81349        17.01756        -0.05568
C          8.58642        19.14387         0.33142
C          9.81954        18.48971         0.30723
C         11.14479         2.07119         0.22124
C         11.21511         3.55312         0.32157
C         12.32701         1.36089        -0.05613
C         12.28640         4.24595        -0.42957
C         11.09310         6.39199        -0.21287
C         11.05027         7.77304        -0.49285
C         12.24414         5.62481        -0.58830
C         12.28707         8.50429        -0.74493
C         10.98174        10.66782        -0.89609
C         10.98415        12.03791        -0.26608
C         12.28802         9.93137        -0.73820
C         12.30105        12.63329         0.15550
C         11.09647        14.84446         0.20652
C         11.10527        16.30495         0.25432
C         12.27110        14.14216         0.24258
C         12.26506        17.01207         0.37199
C         11.04434        19.16621         0.44512
C         12.27396        18.47184         0.39042
C         13.50685         2.00811        -0.47212
C         13.40561         3.42196        -0.93578
C         14.72598         1.32465        -0.54230
C         14.63291         4.09472        -1.50717
C         13.39172         6.35332        -1.20265
C         13.48399         7.81305        -0.94169
C         14.63693         5.61025        -1.60448
C         14.72736         8.51220        -1.02342
C         13.48446        10.63548        -0.78677
C         13.41911        12.14766        -0.80639
C         14.73486         9.94284        -0.86839
C         14.73882        12.83721        -0.56932
C         13.60577        14.78345         0.57661
C         13.60980        16.36150         0.66261
C         14.75274        14.17799        -0.23423
C         14.60880        17.03193        -0.32077
C         13.50476        19.15946         0.36232
C         14.71939        18.50185         0.04824
C         15.94947         1.95293        -0.88266
C         15.93528         3.34267        -1.42382
C         17.16824         1.28174        -0.74616
C         17.22399         4.11346        -1.39345
C         15.93924         6.37755        -1.60226
C         15.95082         7.81472        -1.22838
C         17.24093         5.61884        -1.49860
C         17.18928         8.49661        -1.13317
C         15.96613        10.65219        -0.85996
C         15.97784        12.10568        -0.75035
C         17.19808         9.92711        -0.93678
C         17.18665        12.78949        -0.67508
C         15.97238        14.94165        -0.40517
C         15.92765        16.32196        -0.39017
C         17.22201        14.22953        -0.64659
C         17.11363        17.11898        -0.72151
C         15.93795        19.17510         0.04004
C         17.17064        18.53973        -0.31308
C         18.42557         1.96219        -0.72864
C         18.37328         3.44693        -0.70617
C         19.63810         1.33191        -0.51426
C         19.63642         4.22795        -0.51673
C         18.46322         6.35491        -1.09637
C         18.44120         7.78283        -1.11047
C         19.65217         5.66691        -0.83731
C         19.67558         8.48404        -0.94966
C         18.43769        10.60321        -0.80246
C         18.45448        12.04633        -0.38607
C         19.66943         9.91663        -0.82579
C         19.71082        12.75560        -0.78781
C         18.41789        14.91342        -0.81330
C         18.41988        16.37708        -0.93440
C         19.68610        14.19124        -1.20192
C         19.67176        17.12402        -0.76933
C         18.39667        19.18439        -0.28020
C         19.65417        18.50154        -0.49087
C         20.88117         2.04914        -0.31741
C         20.90125         3.49830        -0.39420
C         22.06506         1.37551        -0.07478
C         22.10887         4.21431        -0.46491
C         20.90260         6.35132        -0.80699
C         20.90629         7.78471        -0.87541
C         22.10657         5.62155        -0.69579
C         22.14585         8.49563        -0.71419
C         20.90490        10.62617        -0.66725
C         20.90923        12.07231        -0.71672
C         22.13578         9.92856        -0.60208
C         22.16455        12.79118        -0.64374
C         20.95447        14.92583        -0.82889
C         20.93480        16.38950        -0.92143
C         22.15142        14.24110        -0.63520
C         22.23161        17.14396        -0.60658
C         20.87869        19.20243        -0.24442
C         22.12642        18.56239        -0.19938
C         23.28301         2.13698         0.36775
C         23.36341         3.51935        -0.24418
C         24.57403         1.37788         0.26633
C         24.57452         4.18752        -0.30294
C         23.39450         6.33024        -1.00799
C         23.36772         7.79716        -0.66782
C         24.63019         5.61869        -0.52097
C         24.58697         8.48841        -0.46056
C         23.36334        10.63731        -0.42675
C         23.35371        12.08544        -0.40990
C         24.58280         9.91368        -0.30922
C         24.55402        12.80895        -0.08838
C         23.37399        14.95127        -0.29208
C         23.39288        16.35476        -0.18760
C         24.55035        14.18965         0.02632
C         24.57592        17.07326         0.20123
C         23.31140        19.21618         0.18710
C         24.54816        18.52071         0.29207
C         25.76792         2.03704         0.24393
C         25.80807         3.49527         0.05984
C         27.04143         1.33724         0.27909
C         26.99018         4.17444         0.16041
C         25.80874         6.32135        -0.37199
C         25.82303         7.76544        -0.35518
C         27.12375         5.57936        -0.37050
C         27.03491         8.46028        -0.14131
C         25.83029        10.59888        -0.14097
C         25.79729        12.04625         0.29898
C         27.03088         9.89532        -0.12366
C         27.03884        12.82248        -0.07759
C         25.74452        14.89286         0.64120
C         25.77419        16.38145         0.41237
C         27.06254        14.24094         0.30353
C         27.00444        17.07966         0.55047
C         25.74892        19.20527         0.54201
C         26.98693        18.51991         0.61971
C         28.21956         2.01260         0.45807
C         28.17308         3.48925         0.79084
C         29.49688         1.34693         0.50019
C         29.47556         4.22036         0.59585
C         28.27742         6.36024         0.21062
C         28.24450         7.74069         0.20198
C         29.48355         5.63074         0.53145
C         29.40069         8.49790         0.81823
C         28.37197        10.57149        -0.35243
C         28.34154        12.09295        -0.23912
C         29.52012         9.93878         0.38183
C         29.56927        12.82373         0.12993
C         28.25341        14.93752         0.34575
C         28.24342        16.37844         0.55949
C         29.53089        14.23526         0.27903
C         29.46139        17.09284         0.66696
C         28.20641        19.21238         0.76912
C         29.43381        18.52606         0.79546
C         30.66050         2.04940         0.63827
C         30.68081         3.49333         0.66893
C         31.91294         4.20128         0.72196
C         30.72558         6.33853         0.68970
C         30.71850         7.75905         0.76252
C         31.93119         5.57810         0.76763
C         31.88968         8.52161         0.97755
C         30.70028        10.63432         0.56348
C         30.75604        12.09774         0.39315
C         31.87375         9.90422         0.96929
C         31.94184        12.82589         0.60532
C         30.73967        14.94887         0.51174
C         30.72173        16.40596         0.65059
C         31.93732        14.21628         0.62143
C         31.89544        17.15212         0.77023
C         30.66451        19.23653         0.92199
C         31.86342        18.55667         0.90841
O         17.60864        16.87435        -2.08991
O         13.94891        16.76271         1.96041
O         13.69372         6.06778        -2.61672
O         13.65051         3.50202        -2.39517
O         16.75089         6.09851        -2.79045
O         27.60861        12.62013        -1.41371
O         11.15115         3.99929         1.75974
O         21.80968        16.91501        -1.99264
O         16.79836         3.45698        -2.61166
O         18.66178         3.98267         0.62277
O         10.84550        10.90310        -2.34160
H         11.54139        11.56901        -2.57993
O          6.10867        11.82843        -2.05321
H          5.16781        11.70538        -2.34342
O          2.26148         4.77699         2.77972
H          3.11476         5.14304         3.10589
O         19.68274        14.18280        -2.68173
H         19.71644        15.11808        -2.98033
O          2.53601         8.56525         2.18483
H          2.48254         7.64228         2.51626
O          6.28174         7.79365         2.02269
H          6.20599         8.73139         2.30218
O          8.27457         7.41454        -1.89132
H          8.34533         8.27252        -2.36411
O          8.81592         3.49644         2.73853
H          9.76186         3.35381         2.97518
O         27.46932         5.40821        -1.79857
H         26.72914         4.92199        -2.22174
O          7.04571        13.97456         1.78434
H          7.74812        13.38558         2.13699
O         18.51764        12.00641         1.10736
H         17.67747        11.60540         1.41932
O         27.93603         3.55546         2.24496
H         27.09766         3.07760         2.42491
O          4.87762         4.54074        -0.87913
H          5.78068         4.22497        -1.08529
O         23.50016         6.27612        -2.49134
H         24.25014         6.85539        -2.74740
O         28.66220        10.27932        -1.76104
H         28.20282        10.97665        -2.28525
O         14.02060        16.94037        -1.65154
H         14.71387        17.17738        -2.30414
O         12.58619        12.08106         1.46711
H         13.13146        12.75999         1.94785
O          4.97881        17.05886        -2.12821
H          5.81892        17.49335        -2.39071
O          3.35425        11.95186        -2.01539
H          3.49966        12.87112        -2.35427
O         10.18198         6.42745         1.96923
H         10.84414         5.85725         2.42305
O          4.85275        14.28041        -2.14898
H          4.87226        15.24632        -2.38628
O         25.84486        11.98880         1.76170
H         24.93860        11.81626         2.09223
O         23.08094         2.37599         1.82115
H         22.21408         2.82663         1.91869
O          9.62369        16.95051        -1.50188
H         10.46584        17.21685        -1.92751
O         29.06479         8.56329         2.26613
H         29.83643         8.96390         2.72177
O         25.55373        14.74121         2.09874
H         26.34357        15.12202         2.53819
O          8.67973        16.40871         2.00028
H          7.99366        15.80138         2.36140
O          4.98944         5.28226         2.46391
H          5.86956         5.72232         2.48734
O         13.00678        12.56156        -2.15410
H         13.75738        12.39289        -2.76261
O         13.92261        14.32157         1.92550
H         14.01125        15.18350         2.44852
H          0.51599         1.58454         0.36877
H          0.32339         3.87905         1.17257
H          2.72591         0.42550         0.26631
H          0.34113         5.75172         0.57106
H          0.20506         8.17431         0.32930
H          0.27456        10.19656         0.69808
H          0.28456        12.63032         0.61889
H          0.26335        14.53827         0.43855
H          0.33056        16.99483         0.39077
H          1.54920        19.10597         0.03647
H          5.10608         0.37719         0.69595
H          3.69991        20.32585        -0.08270
H          7.50065         0.36908         0.58716
H          6.12787        20.24411         0.21274
H          9.88551         0.33114         0.36023
H          8.54840        20.23528         0.47303
H         12.33427         0.26796         0.07210
H         11.04705        20.26239         0.55650
H         14.75711         0.27686        -0.20694
H         13.51135        20.25057         0.51766
H         17.15456         0.20805        -0.50368
H         15.96429        20.23735         0.33153
H         19.67139         0.23296        -0.46738
H         18.43348        20.24684         0.00525
H         22.06786         0.27700        -0.00864
H         20.82272        20.26901         0.02082
H         24.54957         0.28066         0.35242
H         23.28778        20.29595         0.39804
H         27.04088         0.24193         0.16602
H         25.73757        20.30181         0.63140
H         29.51921         0.25062         0.40670
H         28.19961        20.31016         0.84145
H         31.62276         1.51759         0.67411
H         32.85485         3.63553         0.76621
H         32.89695         6.09376         0.85581
H         32.85088         8.01419         1.14094
H         32.81206        10.43956         1.16264
H         32.89611        12.30570         0.75918
H         32.89077        14.73668         0.78193
H         32.87542        16.65701         0.75099
H         30.64225        20.33106         1.02260
H         32.81049        19.10664         0.99990
