         344
 CSIRO Nanostructure Databank - Neutral Graphene Oxide Data Set
C          1.20159         3.55234        -0.80991
C         -0.01593         4.23682        -0.77777
C          1.14720         6.38713        -0.77358
C         -0.04679         5.62866        -0.74886
C          1.14504         7.83280        -0.70801
C         -0.06345         8.56836        -0.61000
C          1.15527        10.67696        -0.45524
C         -0.05865         9.94164        -0.47572
C          1.15928        12.10756        -0.24761
C          0.03124        12.78504         0.19075
C          1.27196        14.90306         0.54443
C          0.09197        14.13292         0.57488
C          1.05449        16.22697         1.34275
C         -0.00966        17.06853         0.68479
C          1.20410        19.18882         1.01357
C          0.02736        18.41831         0.66048
C          1.20852        20.62285         0.96097
C          0.03260        21.38363         0.74364
C          1.18536        23.50737         1.11827
C          0.05532        22.79504         0.78637
C          1.21718        25.01905         1.26178
C         -0.06812        25.72784         0.91107
C          1.07686        27.65204        -0.08976
C         -0.10540        26.97473         0.37295
C          1.09846        29.00276        -0.45343
C          3.66519         3.56071        -0.79180
C          2.41575         4.26077        -0.84910
C          3.61696         6.42919        -0.92028
C          2.39512         5.69887        -0.86079
C          3.62141         7.82901        -0.82918
C          2.37843         8.54850        -0.70895
C          3.63509        10.69552        -0.51628
C          2.38014         9.96997        -0.59520
C          3.65659        12.08920        -0.40126
C          2.39151        12.90233        -0.58461
C          3.71693        14.98222        -0.13365
C          2.45099        14.32577         0.00004
C          3.83138        16.44627        -0.05612
C          2.26186        17.07216         1.77803
C          3.64145        19.17155         1.25864
C          2.39643        18.49677         1.33441
C          3.65110        20.58704         1.21516
C          2.44636        21.30182         1.17807
C          3.69555        23.45721         0.86241
C          2.46944        22.78720         1.45518
C          3.59255        24.83573         0.44974
C          2.41522        25.55249         0.49732
C          3.58083        27.60216        -0.54375
C          2.31248        26.86369        -0.18156
C          3.55252        29.07102        -0.70093
C          2.28491        29.69951        -0.74124
C          6.11571         3.54618        -0.71221
C          4.87909         4.22575        -0.85593
C          6.14129         6.40786        -0.86294
C          4.88569         5.68270        -1.26268
C          6.13605         7.82491        -0.82272
C          4.86811         8.56719        -0.79150
C          6.17340        10.64876        -0.30817
C          4.86483         9.93826        -0.57940
C          6.11173        12.12931        -0.54160
C          4.91754        12.80407        -0.40172
C          6.16862        14.92768        -0.06657
C          4.91242        14.24953        -0.25512
C          6.17716        16.24337         0.69621
C          4.90551        17.05367         0.54800
C          6.16390        19.21099         0.91941
C          4.94357        18.39490         1.29748
C          6.17037        20.58901         0.97993
C          4.94591        21.35875         1.41565
C          6.12868        23.37792         0.42511
C          4.88801        22.74889         0.79536
C          6.09198        24.72561        -0.18742
C          4.79843        25.47355        -0.14814
C          6.09831        27.64476        -0.54504
C          4.85384        26.97940        -0.02193
C          6.03821        29.04937        -0.79276
C          4.77808        29.73962        -0.81224
C          8.57544         3.54394        -0.54774
C          7.33852         4.23173        -0.68156
C          8.56951         6.38344        -0.55239
C          7.33903         5.68750        -0.71922
C          8.57374         7.80669        -0.61121
C          7.35900         8.51472        -0.77138
C          8.65073        10.70139        -0.75098
C          7.34251        10.00218        -1.04933
C          8.66285        12.12983        -0.65615
C          7.36258        12.88429        -0.90519
C          8.62750        15.00083        -0.32626
C          7.34919        14.26827        -0.30979
C          8.62279        16.46816        -0.00973
C          7.37349        17.12447         0.38072
C          8.63666        19.23156         0.62545
C          7.38700        18.49736         0.63104
C          8.63181        20.62417         0.76504
C          7.39746        21.32450         0.83490
C          8.60413        23.55658         0.74898
C          7.35517        22.74706         0.67463
C          8.59961        24.96337         0.22822
C          7.39231        25.44702        -0.54492
C          8.53451        27.68442        -0.70445
C          7.31783        26.96707        -0.54322
C          8.48535        29.07709        -0.95807
C          7.25595        29.73365        -1.02979
C         11.03981         3.52139        -0.35501
C          9.79284         4.21812        -0.39704
C         10.99703         6.37646        -0.18003
C          9.79643         5.67272        -0.36106
C         11.01182         7.79462        -0.25591
C          9.81297         8.51429        -0.48266
C         11.11278        10.63079        -0.59233
C          9.81308         9.94999        -0.56752
C         11.14319        12.14591        -0.60732
C          9.85395        12.83339        -0.43603
C         11.05369        14.92274         0.18248
C          9.88953        14.25291        -0.16551
C         11.08541        16.35435         0.35265
C          9.89746        17.11085         0.32868
C         11.13404        19.18604         0.56962
C          9.89660        18.51057         0.55232
C         11.16444        20.63325         0.57423
C          9.92635        21.33462         1.10559
C         11.14464        23.52889         0.29876
C          9.92938        22.84616         0.85588
C         11.07767        24.93191        -0.19408
C          9.86369        25.63573        -0.18621
C         11.02421        27.66627        -0.89996
C          9.81315        26.98823        -0.60557
C         11.03026        29.09635        -1.18023
C          9.74565        29.89629        -1.12780
C         13.49636         3.50799        -0.18746
C         12.25527         4.17942        -0.15104
C         13.51670         6.36290         0.04697
C         12.22464         5.62518         0.29357
C         13.49740         7.74082         0.04095
C         12.26555         8.50747        -0.06707
C         13.49320        10.65193         0.24122
C         12.30591         9.88662        -0.17488
C         13.59899        12.09185         0.09443
C         12.43650        12.92859        -0.40214
C         13.58723        14.89467         0.56978
C         12.28231        14.11972         0.54191
C         13.58091        16.32283         0.60135
C         12.33849        17.02874         0.51184
C         13.59745        19.13634         0.41932
C         12.35497        18.44858         0.47233
C         13.58255        20.54312        -0.09020
C         12.31335        21.29037         0.23661
C         13.58518        23.41291        -0.28164
C         12.26468        22.69486        -0.29233
C         13.54975        24.80143        -0.86224
C         12.26751        25.57542        -0.60293
C         13.52078        27.60996        -1.36509
C         12.24053        26.94373        -0.91268
C         13.49904        29.11587        -1.20207
C         12.20923        29.76669        -1.35117
C         15.96705         3.47489        -0.08866
C         14.73441         4.17901        -0.05299
C         15.99971         6.28207         0.04537
C         14.76359         5.62617         0.01644
C         16.07520         7.74025        -0.09294
C         14.76178         8.48590        -0.10419
C         16.07575        10.62108         0.28582
C         14.81368         9.88796         0.35513
C         16.05469        12.01787         0.42440
C         14.79543        12.73855         0.37197
C         16.05079        14.86565         0.62684
C         14.80205        14.18514         0.53002
C         16.05608        16.30281         1.10200
C         14.79385        17.04965         0.74315
C         15.98478        19.28959         1.12734
C         14.80566        18.45470         0.64834
C         16.03226        20.68226         0.49905
C         14.83690        21.33008         0.19844
C         16.03782        23.48654        -0.07696
C         14.79338        22.74775        -0.07614
C         16.03313        24.89609        -0.27177
C         14.78674        25.60956        -0.55845
C         16.00638        27.76489        -0.84705
C         14.74551        26.95388        -0.76493
C         15.86444        29.22243        -0.35397
C         14.60845        29.84660        -0.91529
C         18.45570         3.42976        -0.03928
C         17.20258         4.13043         0.00230
C         18.45902         6.25154         0.26306
C         17.23812         5.56554         0.12529
C         18.49260         7.70112         0.69828
C         17.28910         8.48020         0.25940
C         18.55302        10.60421         0.40159
C         17.30467         9.87555         0.27613
C         18.53817        12.02802         0.41933
C         17.28474        12.74869         0.41553
C         18.50951        14.92901         0.11679
C         17.25223        14.17031         0.45669
C         18.47744        16.39514         0.50941
C         17.31370        17.06314         0.76202
C         18.54161        19.27011         0.61687
C         17.36380        18.52068         1.21158
C         18.52052        20.68466         0.46958
C         17.26881        21.39956         0.42530
C         18.50430        23.52961         0.09279
C         17.26629        22.80047         0.13934
C         18.49309        24.95346        -0.04303
C         17.23997        25.60883        -0.20307
C         18.46005        27.87132        -0.20561
C         17.19005        27.07990        -0.20375
C         18.36777        29.29719        -0.63605
C         17.16068        29.94034        -0.68663
C         19.64504         4.10753         0.02096
C         20.90519         6.25011         0.21351
C         19.68601         5.53594         0.18265
C         20.94051         7.65619         0.26734
C         19.78643         8.42646         0.40602
C         20.98581        10.62199         0.49176
C         19.78444         9.87523         0.42941
C         20.97651        12.00786         0.54394
C         19.77342        12.74983         0.50213
C         20.92236        14.94637         0.70018
C         19.77695        14.20058         0.51991
C         20.91965        16.37014         0.62752
C         19.75296        17.10196         0.51080
C         20.93541        19.27100         0.14865
C         19.74488        18.56018         0.44329
C         20.93993        20.65039         0.09609
C         19.74365        21.38896         0.25015
C         20.94099        23.58616         0.15000
C         19.74325        22.83505         0.16918
C         20.92937        24.96902         0.02789
C         19.72450        25.69218        -0.09061
C         20.85692        27.84487        -0.68580
C         19.73586        27.13247        -0.31112
C         20.79289        29.24709        -0.97335
C         19.61596        29.94626        -0.96559
O         14.02101        10.15723         1.53866
O         15.45886         8.24601        -1.35841
O          2.95216        16.61829         2.69629
O         17.71324        27.62636         1.05707
O          5.20379        24.82948        -1.38199
O          2.88807        26.84276        -1.55902
O          8.63930        15.98330        -1.44046
O          8.44033        24.72103         1.64843
O         10.92521        23.46206         1.74343
O         11.25817        11.39640        -1.86856
O          5.17529        18.06862         2.71090
H          4.36320        17.58635         3.02461
O          4.87001        27.21018         1.42402
H          5.03536        28.16432         1.57873
O         11.89982        22.53927        -1.72109
H         12.48724        21.80790        -2.05317
O          2.81703        17.14774        -0.66279
H          2.20538        16.51505        -1.09263
O          0.49064        15.80208         2.61699
H          1.25613        15.61101         3.20705
O         15.59534        19.60463         2.51048
H         15.17223        18.80512         2.89273
O          7.07022        10.16362        -2.46466
H          7.88222         9.94191        -2.96524
O          4.92446         5.65763        -2.74048
H          4.12131         5.18083        -3.04073
O          9.63382        30.73671        -2.28823
H          9.62463        30.16125        -3.08033
O          7.31458        13.08472        -2.36111
H          7.92496        13.82281        -2.57750
O         15.65963        29.26621         1.08062
H         16.44448        28.82930         1.49644
O          2.64931        22.90481         2.94032
H          1.89701        22.42842         3.35499
O         12.09601         5.57169         1.76133
H         11.26633         5.08890         1.96328
O          6.41593        15.83751         2.08100
H          6.16943        16.62749         2.63558
O         13.56374        24.61449        -2.33580
H         12.84974        23.94981        -2.51921
O          2.30361        13.14183        -2.05340
H          1.35513        13.25872        -2.27437
O         12.06093        13.57163         1.87158
H         12.12582        14.30158         2.52209
O          6.46169        10.48015         1.11974
H          5.73038        10.89184         1.62678
O         12.79945        13.47819        -1.68921
H         12.57904        12.79471        -2.36270
O         18.53694        14.92689        -1.35837
H         19.37907        15.34854        -1.63285
O         18.40526         7.64789         2.18323
H         19.19710         7.16093         2.49759
O         16.05258        16.21309         2.57997
H         16.71778        16.86942         2.91222
O          7.70113        25.07642        -1.91901
H          6.84999        25.11401        -2.41490
O         10.02545        21.16661         2.55255
H         10.58411        21.90774         2.88346
O          1.45023        25.33807         2.67306
H          2.13230        24.70454         3.00647
O         13.58390        20.40033        -1.58668
H         13.10328        19.57062        -1.79968
O          5.09793        21.56037         2.85025
H          4.32433        22.09889         3.15094
O         16.32861        27.82245        -2.27041
H         15.47199        27.81068        -2.76929
O         17.71054        18.41149         2.63683
H         17.35094        19.22154         3.07327
O         13.63640        27.36718        -2.81417
H         13.59717        26.38014        -2.92946
H          1.21779         2.45313        -0.79966
H         -0.95849         3.67221        -0.75596
H         -1.02178         6.13152        -0.70295
H         -1.02946         8.04691        -0.62951
H         -1.02047        10.46665        -0.40170
H         -0.91345        12.24908         0.35589
H         -0.80413        14.56942         1.03541
H         -0.90713        16.55015         0.31549
H         -0.83561        18.95715         0.24414
H         -0.92363        20.88353         0.54635
H         -0.88042        23.33013         0.56772
H         -1.00555        25.28229         1.27575
H         -1.06966        27.49850         0.27861
H          0.15257        29.56481        -0.43648
H          3.64791         2.47067        -0.63690
H          2.23383        30.78042        -0.93712
H          6.10700         2.45404        -0.57119
H          4.78378        30.82918        -0.96643
H          8.57124         2.44321        -0.56207
H          7.23665        30.81097        -1.24990
H         11.04000         2.43598        -0.54187
H          9.81341        30.59808        -0.24931
H         13.50342         2.42044        -0.36295
H         12.19026        30.86161        -1.46619
H         15.94826         2.37891        -0.19029
H         14.51632        30.94312        -0.84131
H         18.44735         2.33429        -0.13787
H         17.12994        31.01026        -0.94717
H         20.59688         3.55897        -0.03548
H         21.84995         5.69629         0.11593
H         21.91934         8.14738         0.16495
H         21.95322        10.10199         0.52387
H         21.94002        12.53237         0.60252
H         21.88340        14.45411         0.90532
H         21.88592        16.88384         0.72361
H         21.87317        18.72575        -0.02330
H         21.88554        21.16945        -0.10839
H         21.91055        23.07883         0.24267
H         21.88867        25.50477         0.02645
H         21.82784        27.34212        -0.79788
H         21.72676        29.76081        -1.24259
H         19.60250        31.01413        -1.22806
