         314
 CSIRO Nanostructure Databank - Neutral Graphene Oxide Data Set
C         30.38494        57.26172         0.76103
C         30.35621        58.68824         0.59125
C         29.14365        59.38516         0.34439
C         30.35360        61.48296         0.09238
C         29.15770        60.75937         0.10915
C         32.77258        52.97257         0.74588
C         32.82518        54.36473         0.90190
C         31.61769        55.12692         0.89164
C         32.83116        57.27802         1.17654
C         31.56982        56.53590         0.94954
C         32.82297        58.75980         0.91461
C         31.56301        59.43177         0.57120
C         32.83672        61.55456         0.30804
C         31.59136        60.82980         0.31161
C         35.22997        48.60576         0.28665
C         35.22148        50.02471         0.32481
C         34.00080        50.75376         0.34902
C         35.32811        52.93142         0.65913
C         33.96104        52.14505         0.75865
C         35.29130        54.40163         0.59104
C         34.10593        55.05932         0.90667
C         35.40313        57.24703         0.77419
C         34.13005        56.51692         1.11907
C         35.33373        58.67284         0.33558
C         34.05827        59.42323         0.40287
C         35.32875        61.55149         0.27773
C         34.08074        60.90703         0.35964
C         37.65957        44.25621         0.26573
C         37.61278        45.66673         0.27671
C         36.43896        46.43587         0.16613
C         37.66672        48.60696         0.27969
C         36.43829        47.87680         0.24526
C         37.67914        50.01738         0.31725
C         36.47227        50.73250         0.29306
C         37.71195        52.95663        -0.06881
C         36.41535        52.19782        -0.09047
C         37.73309        54.35307        -0.03601
C         36.52627        55.09335         0.27190
C         37.77002        57.21629         0.01341
C         36.57906        56.49377         0.30118
C         37.77259        58.66372         0.11923
C         36.61250        59.40707         0.28939
C         37.78565        61.57098         0.13703
C         36.58680        60.85791         0.26640
C         40.15837        39.90504         0.03666
C         40.07603        41.32497        -0.00848
C         38.90078        42.07545         0.13907
C         40.11576        44.22167         0.27477
C         38.88981        43.51765         0.23179
C         40.17248        45.65460         0.55804
C         38.87172        46.41512         0.50907
C         40.19441        48.57985         0.52196
C         38.94030        47.84773         0.00783
C         40.20873        50.00071        -0.00452
C         38.97654        50.75769         0.28901
C         40.16087        52.84749        -0.71234
C         38.98561        52.21875        -0.02363
C         40.18018        54.35968        -0.73223
C         38.96279        55.08390        -0.25649
C         40.21313        57.19522        -0.62320
C         38.96738        56.47821        -0.25063
C         40.25344        58.69889        -0.43072
C         39.06780        59.35488         0.17214
C         40.33391        61.55625        -0.19396
C         39.08458        60.92326         0.20633
C         42.75075        35.66559        -0.10382
C         42.68980        37.07284        -0.28576
C         41.44293        37.78088        -0.13352
C         42.59434        39.92365        -0.55690
C         41.35447        39.17151        -0.21562
C         42.61267        41.32505        -0.04778
C         41.33337        42.06853        -0.25937
C         42.65835        44.24549         0.13636
C         41.36354        43.55710        -0.08841
C         42.67247        45.65759         0.15811
C         41.42994        46.39795         0.28640
C         42.60827        48.45148        -0.28145
C         41.43783        47.77294         0.21619
C         42.43576        49.70365        -0.83111
C         41.32008        50.58241        -0.55849
C         42.77086        52.85637        -0.89369
C         41.43032        52.04699        -0.88657
C         42.71686        54.33984        -0.69051
C         41.49784        55.05532        -0.70911
C         42.71492        57.20692        -0.57256
C         41.50367        56.47415        -0.61588
C         42.72936        58.65816        -0.47674
C         41.54380        59.39243        -0.33069
C         42.78837        61.51099        -0.38579
C         41.54367        60.83593        -0.26500
C         45.24098        32.87243         0.14477
C         44.01916        33.54091         0.13987
C         45.19772        35.61376        -0.40221
C         43.97292        34.93852        -0.12021
C         45.13170        37.02329        -0.75350
C         43.89055        37.75954        -0.59937
C         45.19972        39.94061        -0.48390
C         43.91884        39.21976        -0.75586
C         45.18019        41.37183        -0.15350
C         43.89257        42.05042         0.15325
C         45.07784        44.23000         0.38381
C         43.86952        43.53617         0.18429
C         45.10759        45.63719         0.35436
C         43.90696        46.34811         0.14952
C         45.22487        48.58857        -0.08940
C         43.92703        47.77730        -0.25461
C         45.26134        50.07673        -0.11080
C         44.27994        50.82277        -0.76750
C         45.19309        52.95290        -0.14678
C         44.06517        52.20764        -0.56121
C         45.18687        54.37720        -0.30868
C         43.94424        55.05974        -0.54297
C         45.19066        57.21215        -0.61074
C         43.95398        56.49415        -0.56753
C         45.17899        58.63096        -0.62274
C         43.98055        59.35623        -0.51618
C         45.23730        61.50858        -0.51781
C         44.00429        60.81041        -0.49640
C         46.44399        33.55563        -0.05593
C         47.68161        35.69378        -0.33924
C         46.45159        34.95042        -0.31000
C         47.72330        37.08747        -0.39091
C         46.48477        37.83065        -0.72057
C         47.63222        39.95439         0.13812
C         46.38833        39.25909        -0.40219
C         47.66062        41.39160        -0.36702
C         46.34559        42.07231        -0.04173
C         47.61297        44.18246         0.71098
C         46.33062        43.44931         0.50485
C         47.60533        45.65695         1.03626
C         46.29964        46.39806         0.83612
C         47.57628        48.66476         0.97413
C         46.30242        47.89957         0.71431
C         47.56826        50.12225         0.71440
C         46.40215        50.81058         0.37823
C         47.58764        53.00199         0.33063
C         46.39425        52.26085         0.22551
C         47.61976        54.36850        -0.03567
C         46.42539        55.07721        -0.30451
C         47.66706        57.18249        -0.73042
C         46.45623        56.50547        -0.58501
C         47.70278        58.60855        -1.09536
C         46.42151        59.37336        -0.91571
C         47.70449        61.42465        -0.35358
C         46.48292        60.82818        -0.60777
C         48.92592        37.83859        -0.26200
C         50.12170        39.99811        -0.14507
C         48.94096        39.24670        -0.16060
C         50.13308        41.43565         0.01893
C         48.91100        42.11056         0.07768
C         50.16341        44.33477         0.24071
C         48.87220        43.57481         0.17712
C         50.19325        45.74493         0.69616
C         48.91451        46.40481         1.09983
C         50.17589        48.63993         0.98977
C         48.87505        47.91555         1.17658
C         50.07753        50.07731         0.59892
C         48.82841        50.84194         0.95692
C         50.12840        53.01352         0.47031
C         48.83963        52.32576         0.71342
C         50.15619        54.34840         0.24219
C         48.92656        55.02946        -0.22744
C         50.20426        57.28253        -0.43653
C         48.95722        56.48262        -0.60685
C         50.24908        58.59383        -0.76332
C         49.02148        59.40092        -1.12848
C         50.24105        61.37846        -0.15008
C         48.94892        60.59176        -0.13515
C         51.37176        42.17358         0.12695
C         52.64249        44.30619         0.34765
C         51.42708        43.56194         0.24145
C         52.65399        45.70674         0.44496
C         51.38808        46.41160         0.64556
C         52.60110        48.53164         0.02140
C         51.45044        47.89408         0.79013
C         52.63987        50.06167         0.09544
C         51.34026        50.80033         0.29505
C         52.68902        52.97215         0.69565
C         51.38223        52.24612         0.69118
C         52.68974        54.42807         0.52657
C         51.39888        55.13086         0.43615
C         52.72692        57.25782        -0.02119
C         51.41182        56.60245         0.11092
C         52.75458        58.63319        -0.30351
C         51.55264        59.35364        -0.86592
C         52.71024        61.48417        -0.23714
C         51.45507        60.78332        -0.35815
C         53.87358        46.46022         0.48617
C         55.11316        48.60650         0.51741
C         53.91591        47.86194         0.40024
C         55.18568        50.02245         0.45501
C         53.93482        50.79109         0.24733
C         55.14463        52.93758         0.52227
C         53.95059        52.24569         0.51391
C         55.14846        54.38810         0.53287
C         53.89681        55.11186         0.46535
C         55.16328        57.24132         0.29763
C         53.92041        56.54834         0.26720
C         55.16314        58.66122         0.12800
C         53.95021        59.35337        -0.16292
C         55.18217        61.49145        -0.06289
C         53.92742        60.80536        -0.20252
C         56.37345        50.76116         0.55272
C         57.59324        52.92002         0.50960
C         56.39973        52.19232         0.51201
C         57.60630        54.34625         0.50083
C         56.36411        55.08665         0.51821
C         57.62616        57.23435         0.59796
C         56.39451        56.52678         0.48394
C         57.57035        58.67440         0.60020
C         56.37741        59.38351         0.26978
C         57.64943        61.63960         0.23662
C         56.36984        60.82236         0.14955
C         58.80605        55.06426         0.42531
C         60.15619        57.06558         0.29734
C         58.87079        56.48000         0.50986
C         60.48294        58.36905         0.68753
C         58.70062        59.47141         0.93548
C         60.16589        61.36809         0.46225
C         58.87818        60.81547         0.56430
C         61.48491        59.24562         0.20384
C         61.36098        60.63406         0.28473
O         39.82591        53.56455        -1.92976
O         49.12204        55.44074        -1.64969
O         51.19045        56.14520         1.50060
O         42.11777        52.37978        -2.11310
O         39.48032        46.11644         1.80178
O         32.81922        58.23633         2.28404
O         46.88967        58.96829        -2.26970
O         50.41930        50.43256        -0.78697
O         52.00771        52.48756         1.98197
O         34.91265        52.38950         1.88872
O         59.68650        58.88722         1.73843
O         51.13676        48.43752         2.09636
O         47.01204        43.44750         1.82127
O         35.06639        56.95924         2.16329
O         41.31796        42.91151        -1.44506
O         53.32000        50.56729        -1.10810
O         49.38020        44.24669        -1.04112
O         39.22520        51.74758         1.36466
O         40.01000        58.11311        -1.75531
O         45.88471        37.42696        -1.95824
O         48.12747        48.40175         2.31725
O         43.16010        41.44072         1.30185
O         44.87919        47.96929        -1.36421
O         48.84435        51.74926         2.08891
O         48.29389        45.84100         2.30294
O         43.11952        39.74530        -1.89421
O         45.84821        47.25573         1.94075
O         43.43320        50.18165        -1.67460
O         39.30183        60.04460         1.39713
O         34.49977        58.82834        -0.88225
O         51.84180        59.46183        -2.29509
H         51.00513        59.76763        -2.72603
O         40.09367        48.72251         1.95605
H         39.95768        47.81780         2.33348
O         39.08793        47.77316        -1.43965
H         38.27719        47.36355        -1.80945
O         52.33713        48.18358        -1.35875
H         52.80033        48.85282        -1.91374
O         49.19725        59.95143        -2.44912
H         48.33264        59.83259        -2.91831
O         47.50448        40.00415         1.58006
H         47.70445        39.11735         1.94416
O         35.96110        52.22108        -1.49636
H         36.72845        52.01248        -2.07099
O         57.83820        62.37770        -0.98073
H         57.88310        61.74181        -1.72359
O         48.81309        59.97479         1.18634
H         48.82789        60.68795         1.85858
O         47.75930        41.33008        -1.81932
H         48.06712        42.20194        -2.14734
H         29.44023        56.70841         0.64495
H         28.19199        58.83491         0.34538
H         30.33762        62.56673        -0.09121
H         28.20902        61.28530        -0.06862
H         31.81059        52.49766         0.50375
H         30.66913        54.57917         0.77867
H         32.80183        62.65016         0.20866
H         34.27215        48.06466         0.29528
H         33.05519        50.23749         0.12577
H         35.35076        62.65065         0.21857
H         36.71527        43.69807         0.17751
H         35.47021        45.92327         0.06856
H         37.75147        62.64345        -0.10657
H         39.24265        39.33407         0.25413
H         37.93971        41.54831         0.23710
H         40.34155        62.63945        -0.38508
H         41.81822        35.12005         0.10485
H         40.54609        37.19564         0.11744
H         42.80231        62.61063        -0.36501
H         45.26345        31.79093         0.33957
H         43.08541        32.99712         0.33888
H         45.23250        62.59987        -0.37775
H         47.39874        33.01432         0.00167
H         48.61842        35.14269        -0.16940
H         47.73615        62.49774        -0.10508
H         49.88296        37.29404        -0.28637
H         51.08524        39.47850        -0.26250
H         50.19988        62.44803         0.11749
H         52.31435        41.60533         0.10744
H         53.59898        43.76385         0.29758
H         52.69765        62.57582        -0.09169
H         54.82030        45.90408         0.57662
H         56.04794        48.05189         0.69816
H         55.19259        62.58941        -0.13561
H         57.32983        50.22579         0.65538
H         58.55521        52.38540         0.50418
H         57.52381        62.41217         1.04522
H         59.75129        54.50677         0.34102
H         60.91079        56.45957        -0.22775
H         60.22771        62.45098         0.27347
H         62.36052        58.82292        -0.31099
H         62.24135        61.22502        -0.01289
