         349
 CSIRO Nanostructure Databank - Neutral Graphene Oxide Data Set
C          1.33374         2.29216         1.82462
C          1.25621         3.62882         1.41538
C          2.52564         1.58985         1.70770
C          2.38620         4.29056         0.90408
C          1.21452         6.55318         0.95492
C          1.22950         7.89005         0.87943
C          2.31318         5.70585         0.34673
C          2.37526         8.57894         0.17061
C          1.25920        10.81139         0.27875
C          1.23966        12.21442         0.17950
C          2.44381        10.08166         0.33660
C          2.41313        12.97201         0.18041
C          1.22293        15.15309        -0.05968
C          1.22186        16.52818        -0.31641
C          2.39538        14.37984        -0.08412
C          2.42655        17.25055        -0.51998
C          2.44679        18.68618        -0.63206
C          3.67415         2.22478         1.17649
C          3.59821         3.59059         0.79283
C          4.90311         1.50495         1.04073
C          4.77268         4.24377         0.09921
C          3.65813         6.41160         0.45686
C          3.64857         7.87746         0.61412
C          4.83712         5.73049         0.35435
C          4.95728         8.62109         0.55425
C          3.70275        10.76238         0.34844
C          3.68922        12.24232         0.43738
C          4.93331        10.08405         0.30869
C          5.01838        12.98210         0.33787
C          3.65323        15.02667        -0.62398
C          3.65481        16.54648        -0.53128
C          4.91447        14.42208        -0.05888
C          4.85833        17.27717        -0.60731
C          3.61946        19.38840        -0.74323
C          4.88497        18.70732        -0.72916
C          6.08916         2.12376         0.63270
C          6.09203         3.54216         0.30087
C          7.31997         1.42286         0.71168
C          7.27277         4.21634         0.08358
C          6.11500         6.42027         0.24668
C          6.16613         7.83136         0.27019
C          7.31063         5.66457         0.02005
C          7.35962         8.52213        -0.07578
C          6.17997        10.75951         0.07198
C          6.23925        12.17878         0.02683
C          7.36844         9.95888        -0.18346
C          7.45359        12.78434        -0.44213
C          5.98186        15.25373         0.04065
C          6.09421        16.57767        -0.50386
C          7.74039        14.18290        -0.36733
C          7.34560        17.16074        -0.79437
C          6.13200        19.34103        -0.78438
C          7.35783        18.61392        -0.87444
C          8.54433         2.04613         0.41381
C          8.52318         3.42031        -0.22855
C          9.75533         1.37505         0.56031
C          9.81059         4.17951        -0.00995
C          8.54067         6.34408        -0.17234
C          8.55388         7.76987        -0.29439
C          9.79665         5.62514        -0.18064
C          9.77025         8.44449        -0.63875
C          8.55904        10.57883        -0.63019
C          8.55352        11.99548        -0.86156
C          9.74687         9.82294        -0.88274
C          9.66214        12.66760        -1.43140
C          8.58083        14.89731        -1.25076
C          8.52470        16.40277        -1.21735
C          9.54160        14.00624        -1.84773
C          9.56088        17.22244        -1.67820
C          8.59152        19.30012        -0.95011
C          9.77559        18.59446        -1.26753
C         11.00861         2.03235         0.30550
C         10.98313         3.48851         0.16072
C         12.19147         1.33395         0.21813
C         12.27125         4.21938         0.43371
C         11.00750         6.30951        -0.33225
C         11.02929         7.72213        -0.65401
C         12.26672         5.62558        -0.12457
C         12.23780         8.37138        -0.87932
C         10.97973        10.51598        -1.31863
C         10.97981        12.00365        -1.19438
C         12.31009         9.78647        -1.28135
C         12.28496        12.70624        -1.04325
C         11.61882        14.87968        -2.14857
C         11.57270        16.32357        -2.11886
C         12.45705        14.14404        -1.37404
C         12.44477        17.07894        -1.39636
C         11.07668        19.17929        -1.19159
C         12.33807        18.51085        -1.15967
C         13.46055         1.97226        -0.27580
C         13.50825         3.46325        -0.00604
C         14.72779         1.33063         0.25358
C         14.68084         4.11766        -0.12384
C         13.46367         6.25859        -0.31061
C         13.50306         7.62831        -0.83898
C         14.72681         5.59534         0.18030
C         14.82188         8.37730        -0.84179
C         13.58297        10.54954        -1.02416
C         13.54890        11.92437        -0.90025
C         14.82226         9.85103        -0.77516
C         14.72658        12.63662        -0.36172
C         13.40207        14.92539        -0.47875
C         13.70500        16.29997        -1.09690
C         14.69273        14.15490        -0.16911
C         14.72740        17.05592        -0.25614
C         13.54284        19.19522        -0.85167
C         14.78264        18.53590        -0.58600
C         15.92603         1.97830         0.13610
C         15.94055         3.37088        -0.49077
C         17.17560         1.35062         0.47173
C         17.20347         4.13684        -0.17291
C         16.00652         6.28444        -0.21486
C         16.04251         7.64937        -0.42523
C         17.22823         5.52000        -0.11071
C         17.27117         8.38811        -0.30598
C         16.03039        10.52723        -0.50242
C         16.03590        11.96133        -0.36479
C         17.27238         9.80474        -0.30440
C         17.20325        12.68623        -0.09019
C         15.98858        14.84706        -0.21486
C         16.02334        16.29967        -0.46987
C         17.17951        14.14058        -0.06366
C         17.31255        17.04511        -0.36560
C         15.98559        19.20187        -0.37689
C         17.25005        18.52373        -0.17523
C         18.40480         1.96497         0.28821
C         18.47955         3.35323        -0.31099
C         19.63303         1.28079         0.48390
C         19.70985         4.10694         0.11753
C         18.47308         6.25505         0.02127
C         18.46169         7.64927        -0.01631
C         19.71083         5.51705         0.18916
C         19.66034         8.40182         0.38137
C         18.49446        10.53877        -0.05139
C         18.46941        11.98614         0.05234
C         19.70077         9.86181         0.19061
C         19.63336        12.67277         0.39929
C         18.40562        14.88263         0.17146
C         18.48307        16.26671         0.07805
C         19.55488        14.12397         0.69936
C         19.69466        16.99757         0.37229
C         18.43084        19.17575         0.04747
C         19.74203        18.43967        -0.11360
C         20.87147         1.93659         0.37994
C         20.90600         3.40125         0.32409
C         22.08901         1.23498         0.25861
C         22.13711         4.09519         0.40299
C         20.94849         6.19616         0.32122
C         20.94105         7.64046         0.59586
C         22.16769         5.49004         0.30510
C         22.23236         8.38959         0.61913
C         20.95451        10.54952         0.34819
C         20.91330        12.00331         0.47012
C         22.17572         9.85678         0.46342
C         22.08870        12.71137         0.69463
C         20.79453        14.89233         1.10688
C         20.81485        16.35533         0.84261
C         22.09273        14.12658         1.13099
C         22.05141        17.12492         1.10455
C         20.92863        19.21261         0.38375
C         22.07402        18.57946         0.80552
C         23.32316         1.91648         0.19937
C         23.39413         3.33512         0.73720
C         24.45634         1.31727        -0.33424
C         24.68261         4.09163         0.43890
C         23.46141         6.20340        -0.04377
C         23.52221         7.65677         0.40054
C         24.71483         5.44708         0.36595
C         24.77013         8.44790         0.01573
C         23.44138        10.53978         0.53935
C         23.38932        12.02929         0.49834
C         24.65639         9.88385         0.48635
C         24.67613        12.79952         0.53869
C         23.38939        14.89654         1.15452
C         23.36939        16.39830         1.23604
C         24.65615        14.26844         0.73161
C         24.60065        17.13927         0.87491
C         23.30115        19.27033         1.02615
C         24.55355        18.60052         0.98773
C         25.65806         2.06866        -0.48482
C         25.91845         3.19394         0.54972
C         26.43805         1.84201        -1.59389
C         27.30475         3.92209         0.31226
C         25.97769         6.22094         0.58149
C         26.05658         7.71175         0.42026
C         27.27480         5.45313         0.53804
C         27.24004         8.37884         0.55006
C         25.92712        10.57502         0.92609
C         25.94590        12.06828         0.65908
C         27.21141         9.90182         0.36287
C         27.14668        12.79250         0.62593
C         25.79979        15.00474         0.57204
C         25.75284        16.46921         0.53627
C         27.12583        14.30866         0.84282
C         26.97985        17.24526         0.18894
C         25.74092        19.32346         0.98647
C         26.99566        18.77133         0.37608
C         27.57441         2.66111        -1.90277
C         27.96742         3.64245        -1.01658
C         28.26327         2.49292        -3.17179
C         29.33565         4.23411        -1.16352
C         28.52139         6.21651         0.22362
C         28.59020         7.63900         0.83117
C         29.48831         5.60008        -0.51928
C         29.82816         8.48408         0.40787
C         28.46185        10.64213         0.91762
C         28.38322        12.12947         0.62883
C         29.76453         9.99058         0.46065
C         29.63030        12.92248         0.65666
C         28.27608        15.00283         0.13494
C         28.27820        16.50700         0.11017
C         29.57989        14.29961         0.06646
C         29.51906        17.11588         0.74852
C         28.27369        19.29578         0.98310
C         29.47203        18.61731         0.94265
C         29.32052         3.28062        -3.51589
C         29.87428         4.22937        -2.58682
C         30.99753         4.96638        -2.85736
C         30.85849         6.06282        -0.70214
C         31.21021         7.95066         0.61818
C         31.59180         5.76402        -1.81400
C         32.27680         8.71239         1.00596
C         31.00875        10.76479         0.74585
C         30.96021        12.25021         0.75585
C         32.17205        10.13245         1.07056
C         32.15318        13.00585         0.28932
C         30.85958        15.08391        -0.11946
C         30.83112        16.58745         0.16160
C         32.11195        14.30067        -0.07785
C         32.04010        17.33330         0.53377
C         30.70543        19.24845         1.27108
C         31.94088        18.59298         1.09073
O         29.70025         9.27341        -0.83176
O         27.28594        14.50169         2.22320
O         31.49769         6.63035         0.40455
O          7.14002        14.83351         0.70575
O         30.79257        16.06293        -1.19701
O         25.93178         2.61766         1.82787
O         14.28452         7.80698        -2.09365
O         16.77385        16.65837        -1.68948
O         24.01632        12.47649        -0.78646
O         23.09074         7.92797         1.74589
O         22.86488        14.27337         2.37714
O         11.43473        12.45503         0.16001
O         30.32357        12.82591         1.96827
O         10.40814        16.80174        -2.70659
O         11.61086        10.05226        -2.55216
O         14.47888        13.27304         0.97194
O          4.27773         8.31883         1.84749
O         10.50300        14.35780        -2.81626
O         20.10333         7.99957         1.74123
O          4.40736        12.71162         1.64321
O         28.69082        14.36296        -1.10082
O         26.68181         5.80637         1.82052
O         27.65732        16.97355        -1.10902
O         22.66993        16.87498         2.41684
O         19.84257        14.44676         2.11601
O         14.30408        15.98420        -2.38208
H         14.89007        16.72274        -2.65720
O         29.47385        16.56887         2.10027
H         30.11772        17.05398         2.65743
O         27.15337        10.13626        -1.06855
H         28.01912         9.83510        -1.44355
O          2.03339         5.57848        -1.08707
H          2.78220         5.05081        -1.46780
O         14.43727        17.01193         1.15814
H         13.66252        16.41661         1.32208
O         18.64670         3.11635        -1.77538
H         18.93281         3.96614        -2.17536
O          8.43737         3.17209        -1.67575
H          9.26326         2.71474        -1.94334
O         23.41088         3.19974         2.18425
H         24.34881         2.90326         2.39886
O         30.20079         3.30409        -0.43721
H         29.74793         3.13867         0.43144
O         25.87686        10.47874         2.37041
H         26.78804        10.63722         2.73002
O         28.73450         7.50894         2.25339
H         28.00258         6.91868         2.56336
O         24.82987         8.53457        -1.44736
H         25.58547         9.14477        -1.65587
O          4.47233         4.12484        -1.35137
H          4.68692         3.20616        -1.62268
O         12.36957         4.32793         1.90359
H         11.56649         4.79447         2.21986
O         28.20196         3.40824         1.32526
H         27.57481         2.95317         1.97030
O         15.91610         3.16723        -1.94441
H         16.83725         2.90272        -2.20127
O          3.63876        14.71385        -2.06934
H          2.83919        15.13560        -2.45066
O         26.97898        19.38959        -0.95799
H         27.36654        18.72157        -1.57643
O         19.94535        18.33679        -1.57480
H         19.13369        17.93670        -1.95709
O         12.67290        15.10464         0.75863
H         12.72739        14.24358         1.23984
O         28.49664        10.55096         2.37338
H         29.10635        11.25966         2.69396
O         23.44917         6.20791        -1.50700
H         24.04016         6.93782        -1.81820
O         14.71810         5.74125         1.64004
H         13.95318         5.21093         1.98549
O         13.47813         1.77480        -1.72668
H         14.30151         2.21425        -2.06289
O          2.23839         8.35370        -1.25932
H          2.06943         7.38457        -1.39914
H          0.43924         1.79510         2.22467
H          0.28910         4.14405         1.48336
H          2.58537         0.53600         2.01440
H          0.37442         6.05528         1.45971
H          0.41729         8.48022         1.33036
H          0.30186        10.27587         0.21479
H          0.27035        12.70634         0.01801
H          0.27103        14.68507         0.23058
H          0.27190        17.07993        -0.26965
H          1.48553        19.22109        -0.62665
H          4.92879         0.44739         1.34291
H          3.60165        20.48407        -0.83609
H          7.31888         0.38685         1.08400
H          6.17731        20.44019        -0.81833
H          9.76038         0.31847         0.86921
H          8.62206        20.38844        -0.79280
H         12.17592         0.23863         0.33202
H         11.09846        20.25085        -0.93117
H         14.69068         0.29853         0.63765
H         13.52366        20.29635        -0.81484
H         17.14638         0.32099         0.86395
H         16.00969        20.30153        -0.44050
H         19.61291         0.20161         0.70240
H         18.45049        20.27166         0.14909
H         22.06661         0.14516         0.09808
H         20.94444        20.29798         0.19924
H         24.38529         0.30997        -0.77787
H         23.29850        20.37093         1.00617
H         26.13926         1.06470        -2.31575
H         25.70505        20.41343         1.13949
H         27.87404         1.74156        -3.87361
H         28.28827        20.36836         1.23576
H         29.78785         3.18308        -4.50726
H         31.49819         4.88961        -3.83347
H         32.62931         6.10918        -1.90705
H         33.24704         8.22768         1.16754
H         33.06515        10.71369         1.33663
H         33.10916        12.46516         0.23155
H         33.02926        14.79526        -0.42915
H         33.02647        16.90985         0.29902
H         30.69674        20.30042         1.59033
H         32.86265        19.13747         1.34106
