         261
 CSIRO Nanostructure Databank - Neutral Graphene Oxide Data Set
C        -11.02882         0.69297         0.95693
C         -9.75250         1.44851         1.04428
C         -8.50976         0.77316         0.55362
C         -7.27080         1.60491         0.38962
C         -6.00576         0.86706         0.11602
C         -4.71497         1.52726         0.52648
C         -3.44252         0.77585         0.31005
C         -2.24138         1.54622        -0.16090
C         -1.06068         0.76883        -0.61412
C          0.06797         1.43995        -1.36591
C          1.32993         0.71664        -0.99381
C          2.60887         1.44256        -0.77898
C          3.88621         0.68724        -0.47732
C          4.91683         1.48276         0.30375
C          5.98852         0.70815         1.00668
C          7.30886         1.14556         1.53428
C          8.59362         0.66069         0.96975
C          9.83499         1.48532         0.69914
C         10.96361         0.76503         0.03655
C         -9.72534         2.92978         1.11351
C         -8.56991         3.63142         1.13960
C         -7.24114         2.87983         1.27923
C         -6.00162         3.75647         0.89091
C         -4.71067         3.03911         0.51070
C         -3.57622         3.75237        -0.16404
C         -2.43342         2.93729        -0.73274
C         -1.27005         3.64385        -1.38295
C          0.06767         2.91537        -1.58333
C          1.39149         3.66348        -1.48289
C          2.69339         2.88233        -1.19331
C          3.98061         3.60130        -0.89523
C          5.17077         2.87449        -0.25084
C          6.36745         3.69985         0.12617
C          7.34530         3.51222         1.27633
C          8.75236         3.80437         0.83122
C          9.78587         2.97078         0.59535
C         -8.59884         5.13502         1.33505
C         -7.46277         5.89019         0.66470
C         -6.15087         5.19654         0.50049
C         -5.11423         5.83459        -0.40944
C         -3.83716         5.11543        -0.75576
C         -2.60910         5.90061        -1.17589
C         -1.28289         5.15534        -1.39780
C          0.01660         5.89734        -1.25097
C          1.34608         5.14641        -1.22591
C          2.51697         5.77222        -0.51751
C          3.82925         5.04883        -0.47376
C          5.08601         5.86994        -0.45045
C          6.40286         5.18320        -0.22242
C          7.58146         6.00236         0.19289
C          8.89146         5.32133         0.60078
C         -7.52900         7.23001         0.51942
C         -6.38321         8.04660         0.02934
C         -5.16397         7.34553        -0.50843
C         -3.86614         8.12277        -0.57201
C         -2.59176         7.38002        -0.89702
C         -1.29344         8.02151        -0.48196
C         -0.01109         7.27975        -0.63659
C          1.30283         8.05629        -0.78800
C          2.47477         7.26372        -0.20586
C          3.73106         8.02206         0.09396
C          5.01763         7.37007        -0.32898
C          6.30726         8.13463        -0.21146
C          7.52717         7.36060         0.12394
C         -6.19874         9.38631         0.63967
C         -5.01734        10.03404         0.66512
C         -3.80557         9.52366        -0.02408
C         -2.47423        10.18779         0.31701
C         -1.23979         9.49115        -0.22867
C         -0.04461        10.14319        -0.19044
C          1.25667         9.49690        -0.29362
C          2.40571        10.18503        -0.03150
C          3.71630         9.53700         0.37388
C          5.02039        10.23856         0.05634
C          6.20551         9.60205         0.04161
C        -11.06612        -0.59713         0.57308
C         -9.90909        -1.27992        -0.07148
C         -8.60755        -0.52959        -0.19631
C         -7.34167        -1.29483        -0.51955
C         -5.96120        -0.57448        -0.44724
C         -4.82264        -1.42968         0.11629
C         -3.48938        -0.75724         0.21538
C         -2.19989        -1.54214        -0.05520
C         -1.18416        -0.71936        -0.84461
C          0.00423        -1.45720        -1.36551
C          1.33770        -0.75116        -1.30092
C          2.57543        -1.51190        -0.96079
C          3.78686        -0.80428        -0.33370
C          4.76389        -1.57482         0.54023
C          6.02022        -0.85782         1.15353
C          7.25123        -1.47765         0.51240
C          8.48318        -0.68555         0.26081
C          9.72954        -1.41541        -0.28360
C         10.97468        -0.56175        -0.18227
C         -9.88600        -2.76258        -0.12379
C         -8.75782        -3.48921        -0.30379
C         -7.45274        -2.80288        -0.55505
C         -6.22217        -3.60492        -0.24270
C         -4.91254        -2.93447         0.01946
C         -3.60795        -3.69303        -0.11100
C         -2.45784        -2.92796        -0.70947
C         -1.32969        -3.68701        -1.35924
C         -0.01199        -2.96684        -1.50741
C          1.26614        -3.72514        -1.41701
C          2.42616        -2.99617        -0.79485
C          3.61888        -3.74035        -0.32487
C          4.86016        -3.03550         0.18006
C          6.20449        -3.56714        -0.31646
C          7.31688        -3.03149         0.67656
C          8.70039        -3.62790         0.44182
C          9.79905        -2.85463         0.22346
C         -8.80406        -5.01601        -0.42381
C         -7.58474        -5.69700         0.24769
C         -6.28647        -5.10104        -0.34273
C         -5.00321        -5.85029        -0.11425
C         -3.65320        -5.18088        -0.20176
C         -2.55248        -5.95139        -0.91376
C         -1.33310        -5.22743        -1.43634
C         -0.00990        -6.00878        -1.48613
C          1.30182        -5.23771        -1.36214
C          2.55438        -5.97081        -0.96413
C          3.71223        -5.23063        -0.37697
C          5.04600        -5.91154        -0.30114
C          6.21775        -5.05851        -0.69123
C          7.78808        -5.92884         0.90878
C          8.79899        -5.07709         0.68589
C         -7.54413        -7.22167         0.12718
C         -6.39081        -7.86210         0.46914
C         -5.30695        -6.93025         0.90147
C         -3.01903        -8.02177         0.65314
C         -2.62335        -7.47663        -0.73300
C         -1.29029        -8.23520        -0.96716
C          0.00031        -7.47433        -1.11107
C          1.21794        -7.99702        -0.26677
C          2.55569        -7.47249        -0.79415
C          3.84855        -8.18180        -0.55088
C          5.13750        -7.41168        -0.35055
C          6.16362        -7.91148         0.65510
C          7.05876        -6.93947         1.38118
C         -6.14434        -9.29400         0.53575
C         -4.93894        -9.93025         0.61781
C         -3.56985        -9.43181         0.48480
C         -2.57875       -10.25026         0.02972
C         -1.27701        -9.67178        -0.43979
C         -0.00596       -10.23085         0.00026
C          1.23508        -9.58786        -0.17305
C          2.44543       -10.23025        -0.04301
C          3.84337        -9.64633        -0.10734
C          4.67672        -9.86534         1.13747
C          5.76509        -9.12755         1.41656
O         -5.68679         4.80396         1.83782
O         -6.67965         1.72401        -0.90883
O          1.64709         4.61646        -2.54275
O          6.41400         2.85455        -1.04436
O         -3.24244        -4.52327         1.02930
O         -4.21903        -1.19316         1.40850
O          6.35624        -8.03162        -0.78851
O         -1.01126        -0.91335        -2.27084
O          6.96197        -3.35548         1.97218
O          6.96637         3.67651         2.43290
O          4.27117        -5.63083         0.90974
O         -2.39015        -3.05362        -2.14412
O         -2.57302        -7.57718         1.68279
O          5.64666         7.92217        -1.51993
O          4.52025        -0.16189        -1.44989
O         -0.65625         7.28896         0.66924
O          9.61384         0.82357         1.99264
O          2.48722        -3.41066         0.58808
O         -3.92751         1.10404         1.65716
O          2.93617         7.41649         1.16636
O         -5.70191        -5.88614        -1.40207
O          1.55933         8.18848        -2.15937
O         -2.75507         6.85941        -2.24964
O          2.31189        -5.63354        -2.35355
O         -4.95505         5.13864        -1.68611
O          0.15494        -7.05429        -2.48824
O         -7.42911        -2.02558        -1.78251
O         -3.97953         9.29301        -1.44796
O          1.71052         1.15499         0.35313
O         -1.36409        -9.32613        -1.89308
O          2.95493         5.05679         0.69354
O         -2.33155         3.02917        -2.17472
O         -9.53608        -0.54733        -1.30952
O          5.93585         5.45264        -1.56398
O         -8.82709         0.72855         1.96963
O          4.49191        -2.60344         1.51764
O          3.24664        -8.12342        -1.89601
O          4.88577         1.31357         1.74766
O         -3.60079         3.61978         1.27338
O         -2.38255        -5.67022        -2.33537
O          7.43706        -0.76172        -0.75495
O         -4.95032        -6.83693         2.06091
O         -0.60370         5.74085        -2.54284
O          6.92545        -5.40746        -1.63067
O         -7.09305         2.42226         2.57405
O         -1.10291         1.31751         0.73273
O          2.31214        -1.09364        -2.32421
O          3.68840         3.14916        -2.22830
O          1.06600        -7.54914         1.00075
O         -0.03452         1.95849        -2.69633
O         -6.16607         7.88653        -1.41374
O         -5.75400        -3.35972         1.13520
O          0.76429        -3.30562        -2.70568
O          6.39267        -2.92363        -1.58709
H          6.89453        -3.55094        -2.16283
O         -3.60325        -7.94965        -1.65615
H         -3.36184        -7.61770        -2.54922
O          7.32305         1.27137         2.83656
H          6.40899         1.39696         3.18487
O          9.59112        -1.55196        -1.72216
H          8.62443        -1.56021        -1.92669
O         -2.33870        10.24645         1.75089
H         -1.94220         9.40798         2.06696
O          4.48298       -10.39862        -1.16790
H          4.22887        -9.97436        -2.01845
O          3.67793         9.69587         1.83008
H          3.07265         8.99741         2.17601
O          6.05191        -1.04371         2.55060
H          6.26392        -2.02604         2.68964
O         -1.56419        -1.80798         1.20672
H         -2.25949        -1.84798         1.90309
O         -8.86559        -5.37426        -1.80454
H         -8.10755        -4.97636        -2.28081
O         -9.85568         5.68509         0.95004
H         -9.91853         5.67246        -0.02683
O         -5.51061        -0.41226        -1.81062
H         -6.19552         0.08850        -2.30711
O         -7.67009        -5.33456         1.63664
H         -6.86165        -5.62913         2.11094
O          9.89607         5.58319        -0.36949
H          9.50940         5.48964        -1.26464
H         11.89432        -1.02347        -0.57267
H         11.89161         1.34380        -0.09204
H         10.70955         3.43635         0.20813
H          9.24253         5.76770         1.57037
H          8.41605         7.93678         0.42689
H          7.13965        10.18294        -0.01265
H          5.00246        11.33703         0.12134
H          2.31209        11.24575         0.25762
H         -0.04060        11.21373         0.07205
H         -2.50522        11.24664        -0.04687
H         -4.92559        10.98581         1.20864
H         -7.05944         9.80976         1.17972
H         -8.46716         7.75252         0.76499
H         -8.49585         5.30740         2.44260
H        -10.68698         3.46694         1.11280
H        -11.93779         1.18341         1.33601
H        -12.01250        -1.15704         0.62151
H        -10.84098        -3.28389         0.04948
H         -9.74032        -5.39128         0.05695
H         -8.44802        -7.77193        -0.17705
H         -7.03912        -9.93683         0.50884
H         -4.98831       -11.03284         0.63583
H         -2.76731       -11.31884        -0.16720
H         -0.05661       -11.07110         0.71350
H          2.43370       -11.32909        -0.15773
H          4.43001       -10.73026         1.77057
H          6.35630        -9.36816         2.31391
H          7.01777        -7.04005         2.48440
H          9.80852        -5.51685         0.57116
H         10.78404        -3.34306         0.14656
