         762
 CSIRO Nanostructure Databank - Neutral Graphene Oxide Data Set
C         22.85012        24.58075        -0.43606
C         21.67144        25.25128        -0.20688
C         22.76774        27.43504        -0.06189
C         21.63097        26.65685         0.02755
C         22.75645        28.88294         0.11763
C         21.56175        29.59753         0.14405
C         22.69282        31.74476         0.43581
C         21.53428        31.00310         0.29682
C         22.62930        33.23300         0.57874
C         21.48124        33.94956         1.19332
C         22.69685        36.10671         1.35734
C         21.49037        35.30079         1.39590
C         22.74901        37.49498         1.54924
C         21.58820        38.32403         1.41453
C         22.91271        40.39639         1.06827
C         21.68148        39.67688         1.17636
C         22.96912        41.67759         0.49787
C         21.79228        42.39070         0.07662
C         23.08715        44.29161        -0.78440
C         21.84675        43.60679        -0.55207
C         23.13006        45.53206        -1.52881
C         22.10708        45.94659        -2.39223
C         23.43406        47.84265        -3.20318
C         22.25150        47.09582        -3.18222
C         25.45917        23.21537        -0.63108
C         25.34201        24.62656        -0.43461
C         24.10333        25.27298        -0.43678
C         25.31532        27.54356        -0.34535
C         24.03627        26.75716        -0.42782
C         25.21841        28.92490         0.16509
C         24.00511        29.60578         0.28369
C         25.17046        31.78735         0.50199
C         23.97598        31.06179         0.45455
C         25.22128        33.26975         0.16559
C         23.91289        33.99998         0.51276
C         25.24847        35.91563         1.58976
C         23.93618        35.28247         1.29902
C         25.28574        37.39928         1.79171
C         24.03447        38.22116         1.81875
C         25.49848        40.32140         1.16491
C         24.13785        39.79698         1.75055
C         25.42064        41.53746         0.29007
C         24.25665        42.28641         0.18038
C         25.54111        44.25324        -0.58670
C         24.27732        43.64052        -0.36584
C         25.62004        45.68327        -0.89915
C         24.31900        46.38945        -1.44883
C         25.81618        48.14058        -2.51901
C         24.52092        47.51876        -2.37214
C         26.01294        49.36053        -3.28118
C         27.89040        23.23253        -0.20266
C         26.64976        22.55354        -0.50105
C         27.88834        24.64504        -0.12090
C         26.57605        25.35992         0.07289
C         27.80930        27.52701        -0.35111
C         26.62307        26.82376        -0.26389
C         27.69307        28.98572        -0.21771
C         26.49088        29.57744         0.42029
C         27.70510        31.86241         0.27293
C         26.46135        31.11060         0.57202
C         27.71390        33.23574         0.46735
C         26.47754        33.93925         0.69497
C         27.75993        35.87023         1.53816
C         26.48961        35.21684         1.18961
C         27.79240        37.36593         1.64586
C         26.53455        38.07485         1.39480
C         27.68989        40.23832         1.25096
C         26.56558        39.31216         0.83432
C         27.99574        41.34537         0.26156
C         26.70793        42.04247        -0.25443
C         27.88176        44.10471        -1.09296
C         26.70888        43.46188        -0.67668
C         28.04485        45.48981        -1.19538
C         26.88451        46.27965        -1.31659
C         28.32354        47.85967        -2.51532
C         26.97060        47.51045        -1.99950
C         28.46969        49.03987        -3.44035
C         27.23761        49.82977        -3.64887
C         30.33609        20.37788         0.17384
C         29.18035        21.09143        -0.12800
C         30.27878        23.22788         0.56059
C         29.09929        22.49337        -0.01702
C         30.34974        24.69701         0.15115
C         29.11752        25.39715        -0.07030
C         30.38664        27.47602        -0.28194
C         29.11524        26.81632        -0.28459
C         30.55949        28.83149        -0.77595
C         28.66543        29.85621        -0.66163
C         30.17400        31.84193        -0.13769
C         28.87520        31.19912        -0.20173
C         30.24515        33.13898         0.36549
C         29.00940        33.92455         0.47513
C         30.28238        35.93226         1.58247
C         29.03883        35.30013         1.04394
C         30.31713        37.39614         1.64308
C         29.04606        38.13054         1.28048
C         30.25731        40.24259         1.80480
C         28.91455        39.53390         1.91391
C         30.27660        41.57412         1.37817
C         29.28461        42.05241         0.46751
C         30.62330        44.14556         0.13273
C         29.65628        43.17115        -0.26849
C         30.33188        45.63380        -0.08684
C         29.37014        46.09478        -1.17721
C         30.79815        47.97434        -1.92666
C         29.50106        47.32230        -1.77680
C         30.94627        48.83117        -2.97906
C         29.88372        49.56750        -3.77618
C         31.12230        51.84483        -3.25364
C         30.03872        51.07239        -3.61886
C         32.91964        18.80123         0.63209
C         32.79409        20.25385         0.85586
C         31.56412        21.04327         0.48203
C         32.81861        23.17348         0.68465
C         31.56527        22.43428         0.45941
C         32.81365        24.68397         0.66690
C         31.54961        25.41296         0.32977
C         32.76893        27.65847         0.49934
C         31.56118        26.82478         0.18887
C         32.80038        29.11192         0.10782
C         31.58923        29.68430        -0.51980
C         32.73412        31.95577        -0.51860
C         31.45131        31.17726        -0.60756
C         32.79765        33.17807         0.33453
C         31.51858        33.76263         0.83275
C         32.82040        35.94932         1.34320
C         31.57397        35.16286         1.40590
C         32.78820        37.34442         1.67243
C         31.51927        38.06315         1.81824
C         32.72178        40.23108         1.98665
C         31.49759        39.52571         1.94989
C         32.72159        41.68835         2.14919
C         31.44407        42.42035         1.66351
C         32.69928        44.64503         1.39979
C         31.57294        43.77211         1.08446
C         32.70268        45.91953         0.82170
C         31.59713        46.46915        -0.00895
C         33.37206        48.17757        -1.02404
C         31.87797        47.65487        -0.91168
C         33.44056        49.65562        -1.37010
C         32.74607        50.11031        -2.45955
C         33.44841        52.41876        -2.31150
C         32.38135        51.47654        -2.70368
C         33.39511        53.86342        -2.62609
C         35.40411        18.81067         0.81841
C         34.11104        18.15045         0.73228
C         35.41125        20.25069         0.75806
C         34.13029        20.98404         0.99259
C         35.15426        22.83956        -0.13591
C         34.07705        22.38737         0.54291
C         35.27596        24.98752        -0.18056
C         34.09910        25.48228         0.55475
C         35.36402        27.61179         0.12585
C         34.09636        26.97297         0.64623
C         35.36639        29.02804        -0.31205
C         34.06877        29.76502        -0.36304
C         35.32854        31.99288        -0.58913
C         34.05122        31.23171        -0.66670
C         35.25727        33.34412        -0.19053
C         34.04516        33.97454         0.34318
C         35.28857        36.00873         1.01016
C         34.01568        35.25838         0.91269
C         35.27505        37.46170         1.38299
C         33.98681        38.14376         1.66501
C         35.19025        40.36442         1.66428
C         33.97054        39.54977         1.78723
C         35.24203        41.72558         1.87215
C         34.00047        42.48781         2.18423
C         35.24589        44.71076         1.82929
C         33.93336        44.01707         2.02316
C         35.37767        46.06116         1.98735
C         33.68055        46.94900         1.11406
C         35.30379        48.77041         0.62591
C         34.10812        47.95966         0.29183
C         35.38671        50.10082         0.17397
C         34.12485        50.66907        -0.46679
C         35.37556        52.91912        -0.64451
C         34.41846        51.93895        -1.25905
C         35.34914        54.32030        -1.15765
C         34.28852        54.72936        -2.12195
C         37.87610        16.02868         0.95567
C         36.67176        16.67717         0.87807
C         37.92472        18.80408         0.63466
C         36.61957        18.09966         0.73505
C         37.90222        20.32365         0.47238
C         36.57284        20.93223         0.42097
C         37.76190        23.19453        -0.10069
C         36.51982        22.37621         0.15807
C         37.68699        24.63838        -0.59960
C         36.54201        25.45986        -0.09570
C         37.90086        27.61833        -0.19097
C         36.68651        26.88838         0.27859
C         37.83704        29.08172        -0.49132
C         36.62924        29.78479        -0.47607
C         37.77689        31.73128        -1.24878
C         36.56916        31.19702        -0.76788
C         37.65959        33.83186        -0.71224
C         36.47647        34.12127        -0.05067
C         37.76218        35.61013         1.36538
C         36.52729        35.19106         0.89853
C         37.73504        37.69718         1.93700
C         36.51627        38.23764         1.65398
C         37.77646        40.37796         1.24052
C         36.45222        39.66322         1.29563
C         37.82180        41.82064         1.48167
C         36.54280        42.46325         1.85655
C         37.75408        44.71258         1.46333
C         36.51994        43.96058         1.86822
C         37.80022        46.16799         1.69276
C         36.55449        46.84489         1.70582
C         37.64350        49.01274         1.50253
C         36.44163        48.20066         1.30495
C         37.71072        50.36596         0.96636
C         36.57297        50.91903         0.36652
C         37.78770        53.04745        -0.03714
C         36.62890        52.30630        -0.10019
C         37.90794        54.36402        -0.71440
C         36.65797        55.05139        -1.24551
C         37.89251        57.16337        -1.32241
C         36.70009        56.51118        -1.35318
C         40.82301        14.27574        -0.73312
C         40.90533        15.61695        -0.34423
C         39.10643        16.71001         0.67068
C         40.40554        18.75597        -0.12405
C         39.15179        18.03520         0.29312
C         40.21732        20.20441        -0.56648
C         39.05412        21.04678        -0.13204
C         40.15555        23.16128        -0.87206
C         39.00580        22.40924        -0.38703
C         40.20888        24.55346        -0.88713
C         38.96289        25.36334        -0.91646
C         40.35249        27.55204        -0.63620
C         39.00840        26.91617        -0.99437
C         40.34895        29.03483        -0.60069
C         39.09438        29.72124        -0.74633
C         40.28673        31.80369        -1.40562
C         39.06768        31.09746        -1.15026
C         40.06076        34.08715        -1.07628
C         38.89842        34.41939        -0.36240
C         40.21653        36.08440         0.96984
C         38.99459        35.37718         0.69356
C         40.26032        37.43155         1.65910
C         39.01590        38.28540         1.62057
C         40.30285        40.37054         1.19052
C         39.03932        39.62987         1.38545
C         40.30408        41.82927         1.40695
C         39.03765        42.49834         1.46705
C         40.30794        44.70462         1.60261
C         39.05196        43.97317         1.34878
C         40.26465        46.11388         1.72331
C         39.03607        46.83434         1.70758
C         40.25615        49.05785         1.64817
C         39.00144        48.30310         1.84326
C         40.26793        50.41448         1.34617
C         38.96233        51.13268         1.18919
C         40.28984        53.25003         0.48711
C         38.98701        52.55719         0.67454
C         40.27613        54.59169         0.09767
C         39.10549        55.19602        -0.48514
C         40.38550        57.25644        -1.03845
C         39.13042        56.50440        -0.97808
C         40.45892        58.48417        -1.74189
C         42.37408        14.74662        -2.50389
C         41.52376        13.85357        -1.86191
C         42.50525        16.08670        -2.07737
C         41.67200        16.57695        -1.03406
C         42.69644        18.85328        -1.41730
C         41.64271        18.04311        -0.72265
C         42.68221        20.23994        -1.38587
C         41.38622        20.92703        -1.16801
C         42.68459        23.16352        -1.34316
C         41.36294        22.42141        -1.27362
C         42.68778        24.63343        -1.17928
C         41.46163        25.26923        -0.98302
C         42.76884        27.18096        -0.30648
C         41.45404        26.70419        -0.67163
C         42.75628        29.33751        -0.14866
C         41.51926        29.88343        -0.58393
C         42.86236        31.97986        -0.97833
C         41.56098        31.26886        -1.04317
C         43.08018        33.42316        -0.97545
C         41.23167        34.74400        -0.78163
C         42.72706        36.05811         0.76432
C         41.36924        35.69982         0.24896
C         42.92032        37.41199         1.48163
C         41.58128        38.15718         1.64974
C         42.83892        40.38862         1.48553
C         41.59152        39.61801         1.27040
C         42.78797        41.78645         1.71920
C         41.51630        42.52360         1.63972
C         42.72340        44.65385         2.20973
C         41.49161        43.94709         1.79347
C         42.77818        46.12451         1.98823
C         41.47211        46.83921         2.27715
C         42.78799        49.00581         1.56121
C         41.49600        48.33347         1.96566
C         42.72531        50.37941         1.03178
C         41.50920        51.11024         1.08001
C         42.74391        53.17411         0.50288
C         41.52231        52.53430         0.73595
C         42.81529        54.62684         0.36844
C         41.49030        55.41738         0.19979
C         42.81922        57.54413        -0.32998
C         41.53340        56.74298        -0.41707
C         42.77488        58.82566        -1.10465
C         41.65755        59.23281        -1.77867
C         44.55008        16.35867        -3.47779
C         43.61635        16.89717        -2.58428
C         44.97620        18.97918        -2.41787
C         43.79811        18.22713        -2.09901
C         45.12678        20.33617        -1.89317
C         43.90164        20.98277        -1.56641
C         45.09334        22.84998        -0.60920
C         43.90635        22.34878        -1.15224
C         45.28771        24.93576        -1.90031
C         43.85770        25.51329        -1.70088
C         45.19745        27.54273        -0.85904
C         43.93244        26.75664        -0.85801
C         45.22476        29.02403        -0.60504
C         43.99756        29.85124        -0.46114
C         45.34485        31.84711        -0.39304
C         44.06113        31.25401        -0.67944
C         45.39472        33.30127        -0.23670
C         44.12901        34.03295        -0.32310
C         45.24863        36.06595         0.85323
C         43.99775        35.33635         0.39344
C         45.35682        37.56722         0.55210
C         43.96472        38.31411         0.68052
C         45.27347        40.33661         1.61594
C         44.04958        39.68757         1.34590
C         45.22825        41.70620         1.98777
C         44.02032        42.43998         1.98633
C         45.29960        44.69558         2.40827
C         43.99930        43.88460         2.35849
C         45.23324        46.03700         1.69349
C         43.96189        46.76014         1.67268
C         45.09223        48.76597         0.75127
C         43.98023        48.17849         1.31791
C         45.12374        50.18382         0.44971
C         43.95386        50.95971         0.61894
C         45.29630        53.07727         0.14508
C         44.05150        52.45235         0.78723
C         45.30390        54.49476        -0.30709
C         44.00163        55.22822        -0.33370
C         45.32096        57.23703        -1.12188
C         44.00084        56.65420        -0.79071
C         45.66198        17.10365        -3.86792
C         47.90455        19.42620        -2.88165
C         45.87695        18.36923        -3.32654
C         47.65449        20.44883        -1.99656
C         46.35935        21.06271        -1.71681
C         47.55583        23.15762        -0.92604
C         46.35581        22.31946        -1.01836
C         47.60883        24.57494        -0.82895
C         46.44332        25.41709        -1.04608
C         47.66070        27.44049        -0.28534
C         46.45490        26.76395        -0.69099
C         47.67095        28.88283        -0.09259
C         46.50347        29.65840        -0.23020
C         47.73279        31.72912         0.34115
C         46.49999        31.07957        -0.08791
C         47.77396        33.10233         0.63002
C         46.61238        33.95356         0.35579
C         47.83856        36.00738         1.33193
C         46.51622        35.30337         1.00417
C         47.79578        37.52768         1.20743
C         46.56569        38.22653         1.21090
C         47.77066        40.25838         1.83682
C         46.54729        39.60672         1.53646
C         47.79634        41.68921         2.21836
C         46.49205        42.41835         2.31823
C         47.74628        44.56735         1.63176
C         46.47751        43.86770         1.93649
C         47.71449        46.03268         1.41246
C         46.40069        46.65764         1.30662
C         47.60262        48.68606         0.33656
C         46.32941        47.97190         0.62995
C         47.56482        50.12354        -0.01554
C         46.34734        50.79634         0.00203
C         47.56259        52.81740        -0.96213
C         46.24464        52.16492        -0.61183
C         47.55886        54.21718        -1.33084
C         46.43278        55.02704        -1.11749
C         46.41140        56.45139        -1.34827
C         50.23103        19.10274        -2.19005
C         49.17790        18.75598        -2.97358
C         50.13748        20.25367        -1.27419
C         48.81607        20.96615        -1.22792
C         50.14937        23.16307        -0.87077
C         48.82830        22.45678        -1.12624
C         50.05929        24.52615        -0.34870
C         48.86029        25.24795        -0.45196
C         50.07746        27.38509         0.10751
C         48.85276        26.68605        -0.18759
C         50.10816        28.76332         0.29764
C         48.91254        29.55799         0.22273
C         50.17882        31.62069         0.99969
C         48.92243        30.94909         0.46934
C         50.29418        33.11415         0.78160
C         49.04581        33.84158         0.63382
C         50.34467        36.06373         0.85892
C         49.03671        35.34845         0.64931
C         50.32296        37.50695         1.24642
C         49.01837        38.20615         1.41816
C         50.26532        40.29181         2.02795
C         48.99873        39.57602         1.72387
C         50.24410        41.77351         1.91763
C         49.06541        42.44516         1.99741
C         50.24920        44.66229         1.56347
C         49.03786        43.95741         2.13143
C         50.18212        45.98424         1.17126
C         48.89605        46.68421         1.13419
C         50.07130        48.71897         0.17658
C         48.88709        48.18158         0.94029
C         49.99014        49.94357        -0.49895
C         48.76534        50.69582        -0.54814
C         49.88856        52.57281        -1.80387
C         48.71061        52.03279        -1.08119
C         49.89634        54.02322        -2.06655
C         48.79134        54.77363        -1.86500
C         52.60368        20.26156        -0.80866
C         51.39413        20.98572        -0.92566
C         52.61803        23.03692        -0.38380
C         51.39057        22.36158        -0.67309
C         52.62531        24.44688        -0.16869
C         51.32979        25.13172         0.08983
C         52.61015        27.31036        -0.12931
C         51.34436        26.61981         0.27373
C         52.58775        28.79995        -0.09875
C         51.43114        29.42035         0.66434
C         52.68837        31.69191         0.39663
C         51.40029        30.92589         0.46376
C         52.75509        33.09845         0.83831
C         51.51689        33.78205         0.91984
C         52.80728        35.93845         1.59275
C         51.53057        35.23788         1.25242
C         52.82336        37.44373         1.55054
C         51.59956        38.13484         1.63323
C         52.83459        40.35014         1.68048
C         51.59175        39.57615         1.93579
C         52.79838        41.72545         1.67629
C         51.54955        42.48169         1.94413
C         52.76111        44.65127         1.23666
C         51.54496        43.98506         1.75533
C         52.68808        46.06842         0.92020
C         51.40496        46.72848         0.85979
C         52.53000        48.87959         0.30169
C         51.31592        48.04774         0.37380
C         52.51247        50.11103        -0.51388
C         51.22515        50.35036        -1.29601
C         52.44109        52.41503        -2.18578
C         51.15046        51.74673        -1.90851
C         53.79721        20.90286        -0.53412
C         55.09322        23.00678        -0.15857
C         53.84508        22.30479        -0.35110
C         55.10188        24.42712        -0.09921
C         53.85592        25.14679        -0.09843
C         55.12010        27.27035        -0.08127
C         53.89888        26.58363        -0.09745
C         55.17126        28.74915        -0.13621
C         53.89597        29.52713        -0.12755
C         55.23656        31.58812         0.67468
C         53.93156        30.88540         0.49306
C         55.22308        33.05806         0.80625
C         54.02560        33.73659         1.01720
C         55.21264        35.96485         0.89757
C         54.12154        35.14830         1.60594
C         55.35191        37.36861         1.55133
C         54.04642        38.15262         1.51323
C         55.27039        40.29844         1.29492
C         54.07436        39.59734         1.48106
C         55.33319        41.77017         1.34348
C         54.03719        42.52786         1.53736
C         55.07900        44.57910         0.42633
C         53.92885        43.94435         1.10296
C         55.10540        46.05594         0.35393
C         53.89051        46.75932         0.66254
C         55.11123        48.98158         0.25734
C         53.86400        48.22858         0.60080
C         54.96620        50.47962        -0.05632
C         53.65170        50.82101        -0.76138
C         53.59931        51.97521        -1.64979
C         57.52839        22.99911         0.01959
C         56.33067        22.31815        -0.07288
C         57.57696        24.41476         0.02021
C         56.34710        25.13402        -0.02450
C         57.60773        27.27878         0.01007
C         56.36275        26.56619        -0.01253
C         57.63977        28.71304         0.06230
C         56.43872        29.46072         0.16472
C         57.68360        31.58732         0.14483
C         56.47223        30.85455         0.33089
C         57.71155        33.02814         0.28721
C         56.56963        33.72159         1.02285
C         57.69906        35.89250         0.52757
C         56.53958        35.22155         0.80052
C         57.71002        37.38396         0.49695
C         56.49840        38.13756         0.91205
C         57.85141        40.35883         1.05710
C         56.56929        39.59300         1.26080
C         57.72958        41.79696         0.68053
C         56.52853        42.43887         0.75489
C         57.58964        44.60269        -0.09234
C         56.38135        43.82597         0.24253
C         57.48225        45.98574        -0.38441
C         56.26325        46.70211        -0.09107
C         57.39018        48.84243        -0.89787
C         56.31852        48.18430        -0.13572
C         57.27083        50.24669        -1.13159
C         56.18378        50.99679        -0.78450
C         60.06983        24.44803         0.07482
C         58.83856        25.13179         0.03920
C         60.09175        27.27290        -0.04824
C         58.84309        26.56302         0.00341
C         60.10115        28.70756        -0.16156
C         58.87466        29.42474        -0.05403
C         60.03136        31.52965        -0.69334
C         58.85091        30.84807        -0.16429
C         60.00104        33.09134        -0.69821
C         58.85014        33.75641        -0.04952
C         60.08658        35.90134        -0.19597
C         58.92335        35.19212         0.14762
C         60.14939        37.35480        -0.15113
C         59.03825        38.07342         0.50578
C         60.21772        40.27191        -0.01273
C         59.10502        39.58392         0.67996
C         60.23380        41.76014        -0.04645
C         58.95790        42.53696         0.28992
C         59.94212        44.57972        -0.77495
C         58.83173        43.92982        -0.20053
C         59.83806        45.97086        -1.14747
C         58.62508        46.68390        -0.90475
C         59.65586        48.69674        -1.88204
C         58.54864        48.08525        -1.24544
C         61.27976        25.14427         0.05917
C         61.29708        26.53174        -0.01437
C         61.30630        29.44653        -0.42389
C         61.28553        30.77679        -0.72519
C         61.25882        33.83685        -0.78656
C         61.27903        35.17246        -0.56140
C         61.21754        38.09462        -0.60858
C         61.22016        39.52349        -0.57759
C         61.21436        42.47170        -0.87763
C         61.10491        43.80102        -1.13120
C         60.93209        46.65015        -1.74170
C         60.82804        47.98451        -2.11938
O         57.40058        39.99474         2.40253
O         55.38248        43.89769        -0.85622
O         51.88083        31.41179        -0.80650
O         54.59908        29.36129        -1.37891
O         48.10271        35.86487         2.70521
O         40.15455        33.05610        -2.03524
O         29.00192        43.36339        -1.48407
O         40.97064        37.72750         2.90576
O         27.82851        36.53346         2.83102
O         29.03892        35.18767        -0.41402
O         34.76712        51.76607        -2.65210
O         34.83932        54.00441         0.18435
O         45.27637        28.47837        -1.99956
O         51.68625        43.39457         3.10271
O         40.34409        20.31784        -2.03336
O         41.56934        18.46208         0.69515
O         37.77189        36.42075         2.50331
O         34.26971        46.82238         2.37662
O         48.97419        34.74684        -0.63476
O         35.01256        23.90638        -1.02381
O         52.30512        28.11442        -1.33571
O         27.48949        41.10268        -1.07322
O         42.75946        28.19467         0.65280
O         26.62817        40.80778         2.20841
O         49.23372        20.14846        -0.09313
O         43.17910        44.17118         3.54266
O         38.16427        48.86152         2.87753
O         29.55306        29.33160        -1.60146
O         42.22514        55.35784         1.48588
O         32.24700        49.15720        -3.36514
O         24.64616        27.34630        -1.65037
O         31.30429        47.86352         0.41910
O         51.91531        35.45364         2.66004
O         50.21346        51.77407        -3.03329
O         32.75775        23.96577         1.94798
O         45.62346        35.49815         2.14354
O         42.26703        34.35644        -1.62109
O         38.06186        24.83293        -1.98552
O         35.24274        27.91336        -1.30378
O         45.84483        54.09909         1.02421
O         24.80275        46.56733        -0.09014
O         33.36233        20.64410         2.16291
O         24.54593        35.14652         2.63068
O         45.50322        24.25783        -2.89225
O         37.23323        23.11456         1.25518
O         23.03460        34.00891        -0.64672
O         33.94148        30.26010        -1.74133
O         33.94649        43.38606         3.33763
O         54.51861        30.91788         1.81833
O         46.95168        43.94459         0.55132
O         40.99493        39.90855        -0.03475
O         60.03156        42.36644         1.27446
O         28.37427        47.67215        -3.99057
O         38.29645        44.38876         0.13792
O         59.47412        38.67366         1.76383
O         43.41649        38.46793        -0.57864
O         37.56200        54.33854        -2.15121
O         34.37927        26.17798         1.81733
O         31.77729        42.25802         3.07794
O         51.35803        25.76496         1.44371
O         35.32323        37.05437        -0.06066
O         46.39179        34.00103        -1.10408
O         26.64794        30.20726         1.72295
O         43.62164        55.58247        -1.71714
O         30.88983        35.23963         2.70651
O         42.32427        49.00242         2.97273
O         40.25114        15.93734         0.84873
O         36.71767        43.23516         3.12636
O         56.75671        37.92804        -0.51956
O         24.70098        37.80157         3.06719
O         54.97376        42.34333         2.66075
O         56.16143        48.77223         1.25118
O         46.97475        19.05466        -3.85425
O         32.63090        28.73376         1.50603
O         37.70968        27.28505         1.23097
O         47.17128        42.00722         3.52920
O         53.13136        48.93937         1.64763
O         41.93632        22.80690        -2.56522
O         37.67615        32.99489        -1.84014
O         50.55628        37.03698        -0.19188
O         31.97481        31.94772        -1.75799
O         59.71859        32.31618        -1.90003
O         37.01855        40.03584        -0.00296
O         38.19348        19.71317         1.77516
O         49.61500        23.02670        -2.23761
O         50.94872        39.85196         3.25001
O         32.30525        32.84777         1.68837
O         38.75654        52.26447         2.10142
O         46.97386        47.88927        -0.71097
O         43.19831        34.98490         1.63686
O         33.21723        51.05876         0.59735
H         33.04749        50.27439         1.16149
O         54.92917        51.17281         1.21705
H         55.50597        50.66513         1.83131
O         43.44132        25.86624        -3.04058
H         43.80007        25.17294        -3.64166
O         56.85554        33.54569         2.44864
H         56.13283        34.01204         2.94295
O         28.63340        39.36682         3.30902
H         27.88010        39.95128         3.54867
O         29.58424        45.95031         1.13243
H         29.74093        46.90331         1.32420
O         45.54628        51.97240        -1.89457
H         46.08562        51.36305        -2.44284
O         30.08663        49.30071        -5.18553
H         29.67812        48.42357        -5.36612
O         51.71072        29.15362         2.05802
H         51.13387        29.74169         2.60178
O         55.73018        37.19234         2.93261
H         55.88167        38.07492         3.33358
O         24.04855        40.27120         3.10306
H         24.52765        39.62006         3.66748
O         54.50036        34.95257         2.98441
H         53.66871        34.84100         3.50017
O         43.08897        57.88803         1.05799
H         42.85923        57.09668         1.60618
O         26.38301        25.35450         1.55341
H         26.68061        24.48006         1.88710
O         29.05953        38.31442        -0.15626
H         29.13364        37.43637        -0.59233
O         51.30362        49.41708        -2.41515
H         50.70067        49.76985        -3.10930
O         30.02625        23.29778         2.02043
H         30.88002        23.58414         2.43229
O         25.38672        33.32827        -1.27926
H         24.47752        33.39155        -1.66137
O         43.46709        37.21578         2.76957
H         43.69428        36.25788         2.87573
O         54.72581        36.14411        -0.44800
H         55.37812        36.71062        -0.92927
O         45.58943        44.98989         3.79305
H         44.73351        44.95413         4.28310
O         50.18995        31.40341         2.45611
H         49.46375        31.93042         2.85421
O         45.69698        37.60467        -0.85240
H         44.89480        38.00764        -1.29851
O         41.29612        46.73123         3.72035
H         41.82153        47.46023         4.12466
O         38.76496        27.27980        -2.37063
H         38.23772        26.55557        -2.78211
O         44.20535        52.60348         2.23091
H         44.71953        53.43238         2.38151
O         49.05461        44.25133         3.55605
H         49.89720        43.88510         3.91612
O         45.00084        23.84727         0.32562
H         45.87842        23.99790         0.73416
O         34.01266        47.39422        -2.05131
H         33.70699        47.74348        -2.91939
O         48.94336        48.79103         2.26715
H         49.77371        48.50256         2.70254
H         22.82910        23.48785        -0.54524
H         20.72954        24.68720        -0.16045
H         20.66219        27.10851         0.28199
H         20.60393        29.07564         0.01552
H         20.55995        31.51184         0.28434
H         20.55254        33.38830         1.37393
H         20.55831        35.78261         1.72832
H         20.59767        37.84938         1.36877
H         20.74477        40.20619         0.95182
H         20.80287        41.95896         0.27743
H         20.90618        44.09758        -0.83900
H         21.18571        45.35416        -2.48027
H         23.51772        48.68219        -3.90738
H         21.43143        47.38297        -3.85462
H         24.56934        22.64013        -0.92301
H         25.12790        49.96709        -3.52385
H         26.66202        21.46730        -0.65723
H         27.31137        50.80698        -4.14760
H         30.30588        19.28077         0.13415
H         28.29883        20.51862        -0.44784
H         30.95766        52.93207        -3.34072
H         29.18070        51.64099        -4.01187
H         32.01285        18.21387         0.42554
H         32.62026        54.21526        -3.32287
H         34.10118        17.05713         0.61872
H         34.25177        55.78848        -2.41894
H         37.91989        14.95588         1.18452
H         35.74561        16.11009         1.03952
H         37.89978        58.25411        -1.45290
H         35.75918        57.07112        -1.44813
H         40.20754        13.57987        -0.14925
H         39.58221        58.86887        -2.27758
H         42.97013        14.37614        -3.34626
H         41.44894        12.81430        -2.20885
H         43.66449        59.47014        -1.07712
H         41.67087        60.18148        -2.33420
H         44.42090        15.35595        -3.90176
H         45.40131        58.32462        -1.25535
H         46.37209        16.70570        -4.60352
H         47.33316        56.94496        -1.68750
H         51.20371        18.61308        -2.34064
H         49.27765        17.95002        -3.71350
H         50.79886        54.48139        -2.49332
H         48.83055        55.84386        -2.10824
H         52.60153        19.17234        -0.94954
H         52.44092        53.28615        -2.85541
H         54.71587        20.30454        -0.48085
H         54.53163        52.50514        -1.88447
H         58.45558        22.41420         0.07469
H         56.35262        21.22065        -0.08606
H         58.11027        50.76980        -1.61168
H         56.24696        52.08538        -0.92629
H         60.09812        23.35170         0.11693
H         59.61093        49.75322        -2.17519
H         62.22651        24.58818         0.09506
H         62.26557        27.04811        -0.03193
H         62.26633        28.91514        -0.47223
H         62.21190        31.28092        -1.03256
H         62.16501        33.32055        -1.13072
H         62.22416        35.71819        -0.67960
H         62.08130        37.60479        -1.07679
H         62.07355        40.02398        -1.05447
H         62.06866        41.92082        -1.29350
H         61.90053        44.27579        -1.71991
H         61.88179        46.12985        -1.91670
H         61.68305        48.48506        -2.59399
