         210
 CSIRO Nanostructure Databank - Neutral Graphene Oxide Data Set
C         30.62373        31.60215         0.06500
C         30.71447        32.82685        -0.16697
C         30.73412        35.88702        -0.66977
C         30.56288        37.10671        -0.76971
C         30.46499        40.22102        -1.23905
C         30.52010        41.47512        -1.39833
C         32.92871        28.94045         1.19929
C         31.83963        29.45604         0.83669
C         32.94581        31.58991         0.72998
C         31.72060        30.82644         0.52767
C         32.96619        33.02116         0.51489
C         31.80309        33.70965         0.03896
C         32.92767        35.90109         0.19954
C         31.81354        35.09728        -0.17066
C         32.86863        37.37232         0.10033
C         31.54188        38.05129        -0.19794
C         32.73908        40.34532        -0.25779
C         31.45544        39.53208        -0.38303
C         32.92482        41.59396        -1.13252
C         31.56464        42.39055        -1.31888
C         32.80619        44.39496        -0.84599
C         31.76861        43.75537        -1.17816
C         35.57123        27.39104         1.62705
C         35.39015        28.83302         1.83177
C         34.17447        29.53850         1.44127
C         35.41877        31.66593         1.12212
C         34.15768        30.93112         1.14310
C         35.40112        33.11798         0.95690
C         34.14590        33.80760         0.75337
C         35.28831        36.04036         1.00277
C         34.09362        35.23275         0.66990
C         35.26927        37.57289         0.88003
C         33.98974        38.13842         0.28579
C         35.30335        40.29380        -0.12241
C         34.00112        39.61760         0.12564
C         35.30850        41.70372        -0.32565
C         34.10287        42.41088        -0.63183
C         35.27544        44.54240        -0.26886
C         34.09349        43.82932        -0.58024
C         35.42488        45.94775        -0.14051
C         37.98657        27.38602         1.26730
C         36.69473        26.86209         1.58729
C         37.99037        28.81606         1.27710
C         36.74966        29.58149         1.61224
C         37.90850        31.72537         1.10264
C         36.63441        30.99460         1.21417
C         37.86675        33.16730         0.78036
C         36.60709        33.83147         0.86988
C         37.82729        36.02091         0.46383
C         36.62275        35.30530         0.93830
C         37.74579        37.45533         0.18563
C         36.53596        38.16838         0.26663
C         37.76695        40.28990        -0.12407
C         36.52578        39.57830        -0.00712
C         37.77864        41.72164        -0.14815
C         36.54486        42.43320        -0.20395
C         37.77594        44.57240         0.04081
C         36.53775        43.86002        -0.14578
C         37.80430        46.02957         0.15214
C         36.49041        46.56668         0.05973
C         40.27549        24.55818         0.56577
C         39.28303        25.24943         0.87656
C         40.37108        27.32250         0.59820
C         39.14138        26.66021         0.94309
C         40.36654        28.75830         0.56612
C         39.17601        29.47914         0.89699
C         40.45517        31.72471         0.55176
C         39.20483        30.96401         0.99030
C         40.16684        33.05206        -0.19602
C         39.02008        33.85885         0.41072
C         40.12931        35.88245        -0.56841
C         38.96542        35.27422         0.18143
C         40.17159        37.40304        -0.47693
C         38.94367        38.15398        -0.17418
C         40.25876        40.28525        -0.11019
C         38.99398        39.56637        -0.15735
C         40.27436        41.71912        -0.08545
C         39.01451        42.44194        -0.11019
C         40.28559        44.55768         0.21512
C         38.99557        43.85282         0.02069
C         40.31064        46.06552         0.32429
C         38.98996        46.75351         0.23179
C         40.26167        48.81399         0.01002
C         39.20949        48.14195         0.11007
C         42.75885        24.53417        -0.14958
C         41.53799        25.11860         0.22160
C         42.77468        27.30203        -0.02544
C         41.56034        26.58140         0.25723
C         42.76651        28.76473        -0.03707
C         41.56837        29.45463         0.21082
C         42.74113        31.64848        -0.36605
C         41.43837        30.88344        -0.27703
C         42.72119        33.07779        -0.35014
C         41.48125        33.80037        -0.28346
C         42.69498        35.89848        -0.20997
C         41.46532        35.19109        -0.30787
C         42.66910        37.33964         0.09237
C         41.47431        38.13617        -0.28792
C         42.72492        40.26915         0.11308
C         41.47614        39.58731        -0.01303
C         42.74081        41.70123         0.03867
C         41.51199        42.40029        -0.07262
C         42.80658        44.60409        -0.02203
C         41.51705        43.88491        -0.35741
C         42.79936        46.03837         0.01330
C         41.57678        46.80287         0.04642
C         42.86056        48.82328        -0.11619
C         41.57087        48.23328        -0.04052
C         43.79270        25.23010        -0.36511
C         45.28501        27.33123        -0.40126
C         43.97702        26.61097        -0.35850
C         45.11323        28.77431        -0.89731
C         43.93430        29.50472        -0.43848
C         45.19253        31.66840        -0.68462
C         43.94364        30.93548        -0.53498
C         45.20117        33.09423        -0.53123
C         43.95096        33.80300        -0.39698
C         45.17779        35.97404        -0.18419
C         43.93478        35.22481        -0.24349
C         45.20924        37.33180         0.07873
C         43.95890        38.07722         0.32042
C         45.18478        40.22887         0.23900
C         43.95906        39.55078         0.19951
C         45.18665        41.65828         0.18744
C         44.00085        42.40120         0.06124
C         45.25726        44.57201         0.05598
C         44.01835        43.87282         0.01131
C         45.28278        45.99457         0.05568
C         44.07250        46.71956        -0.00214
C         43.89680        48.11468        -0.07907
C         47.40492        27.45662        -1.41533
C         46.41081        26.72439        -1.23539
C         47.67148        28.84931        -1.36109
C         46.38555        29.57387        -1.27618
C         47.66726        31.67224        -0.80151
C         46.41307        31.00237        -0.93592
C         47.66595        33.09054        -0.56882
C         46.43253        33.79115        -0.52269
C         47.69938        35.94156        -0.08951
C         46.44790        35.29745        -0.64093
C         47.68762        37.33949         0.18860
C         46.45132        38.07542         0.16091
C         47.67510        40.16790         0.56776
C         46.44192        39.47949         0.31220
C         47.69721        41.59456         0.69799
C         46.50298        42.32968         0.19552
C         47.74907        44.51731         0.63711
C         46.53870        43.82060         0.09951
C         47.55884        45.86886         0.50838
C         46.59822        46.58222         0.03891
C         50.17601        28.97317        -1.21839
C         48.86653        29.52167        -1.17392
C         50.15535        31.63544        -0.70370
C         48.90908        30.95763        -0.90906
C         50.13331        33.05010        -0.39548
C         48.91089        33.78307        -0.36373
C         50.12502        35.87773         0.28239
C         48.90170        35.20162        -0.05996
C         50.11734        37.27967         0.59112
C         48.89611        38.02087         0.52456
C         50.08386        40.13921         1.10825
C         48.88435        39.43715         0.75102
C         50.06744        41.55731         1.34585
C         48.82873        42.27335         1.15017
C         50.04400        44.30505         1.68846
C         48.65154        43.77020         1.56444
C         51.28314        29.52917        -1.06782
C         52.56115        31.69734        -0.49448
C         51.42769        30.91085        -0.76554
C         52.47251        32.91818        -0.19475
C         51.35663        33.75802        -0.09264
C         52.46022        35.91448         0.63639
C         51.34466        35.12577         0.27199
C         52.44657        37.13151         0.93587
C         51.32122        37.98456         0.94054
C         52.38059        40.19203         1.58557
C         51.30212        39.37484         1.21937
C         52.41881        41.43365         1.81379
C         51.29435        42.26007         1.70156
C         51.08350        43.66373         1.88467
O         43.13319        37.61584         1.45905
O         38.76319        31.44391         2.30346
O         40.43610        45.18257         1.51405
O         36.14460        29.33665         2.93460
O         46.79036        42.99085        -1.10619
O         40.94420        37.89416        -1.64069
O         45.42381        29.10636        -2.27926
O         31.03180        38.91935         0.83938
O         36.00135        35.69686         2.23163
O         33.19424        40.41970         1.09704
O         33.26407        41.07398        -2.43838
H         33.43252        41.82562        -3.04470
O         39.68100        32.80101        -1.53395
H         39.65188        33.67691        -1.99316
O         35.25956        38.11240         2.23176
H         35.70414        37.44757         2.80934
O         46.49363        35.55688        -2.10067
H         47.31143        35.14057        -2.44813
O         41.17414        32.06924         1.75356
H         40.50884        32.16002         2.47656
O         40.91812        30.70244        -1.62238
H         41.61945        30.28306        -2.16349
O         39.82757        35.57969        -1.97489
H         40.34698        36.22399        -2.51187
O         48.02237        43.76220         2.85498
H         48.65667        43.40469         3.51114
O         41.35456        44.01826        -1.81100
H         42.11443        43.57426        -2.24407
O         45.75029        27.44241         0.94934
H         45.78891        26.54605         1.34418
