         429
 CSIRO Nanostructure Databank - Neutral Graphene Oxide Data Set
C          1.90384         4.18417         3.87982
C          0.74226         4.91102         4.10197
C          1.66083         6.83391         2.89545
C          0.61608         6.21747         3.61691
C          1.55528         8.19174         2.39578
C          0.38558         8.96239         2.57376
C          1.41625        10.90029         1.51175
C          0.31485        10.27900         2.15103
C          1.35445        12.31667         1.11642
C          0.13228        13.00967         1.02995
C          1.30722        15.09643         0.58235
C          0.10923        14.36909         0.74902
C          1.28256        16.51080         0.24709
C          0.12844        17.30189         0.55470
C          0.99397        19.19746        -0.73703
C          0.03592        18.61735         0.20803
C          1.00047        20.66145        -0.98429
C         -0.17456        21.39344        -0.81849
C          0.92583        23.50497        -1.32084
C         -0.21467        22.79369        -0.94642
C          0.98179        24.94204        -1.36257
C         -0.20292        25.71503        -1.40190
C          1.03439        27.76144        -0.91318
C         -0.17247        27.08697        -1.25293
C          1.06325        29.22285        -0.78017
C         -0.08729        30.00417        -1.01216
C          1.19676        32.06414        -0.81627
C         -0.02017        31.39311        -0.99930
C          1.21748        33.57623        -0.74392
C          0.29563        34.25069        -1.72954
C          1.58902        36.30934        -1.69636
C          0.42526        35.57694        -2.05220
C          1.77356        37.70680        -1.93934
C          4.16099         4.02748         2.88805
C          2.97640         4.76246         3.15307
C          3.95457         6.68792         1.94547
C          2.85737         6.09710         2.65954
C          3.87487         8.04520         1.53613
C          2.68013         8.79535         1.74211
C          3.69671        10.80219         0.51589
C          2.58753        10.15282         1.31029
C          3.82679        12.26666         0.89538
C          2.55662        13.03465         0.89425
C          3.80683        15.26075         0.65466
C          2.54608        14.41448         0.64461
C          3.69567        16.48250        -0.26592
C          2.42660        17.11330        -0.32713
C          3.47625        19.12881        -1.60790
C          2.26071        18.40833        -1.02119
C          3.45362        20.64227        -1.44560
C          2.21926        21.31028        -1.37603
C          3.48931        23.54433        -1.67691
C          2.13135        22.75039        -1.65114
C          3.46732        24.91637        -1.20535
C          2.24164        25.61621        -1.16858
C          3.43908        27.61254        -0.26041
C          2.21413        27.00603        -0.81548
C          3.45353        29.11958        -0.08484
C          2.27743        29.89535        -0.50652
C          3.63630        31.96786        -0.26823
C          2.36792        31.30974        -0.55531
C          3.73771        33.39348        -0.42792
C          2.61602        34.12598        -0.86947
C          4.01574        36.24632        -0.88305
C          2.74665        35.51120        -1.28014
C          3.87253        37.72152        -0.57488
C          2.87123        38.38749        -1.48727
C          6.32740         3.70226         1.66257
C          5.19132         4.57841         2.12547
C          6.15878         6.40052         0.68517
C          5.10962         5.90278         1.65600
C          6.24101         7.90151         0.59930
C          5.16733         8.75471         1.22732
C          6.16361        10.75479         0.12488
C          5.02619        10.09980         0.57562
C          6.21712        12.17251        -0.00121
C          5.11295        12.96431         0.59617
C          6.26144        15.09126        -0.24052
C          5.11128        14.46426         0.46970
C          6.14210        16.47361        -0.77647
C          4.84927        17.15293        -0.75690
C          5.96989        19.23576        -1.48368
C          4.78915        18.49313        -1.22756
C          5.96356        20.63777        -1.57432
C          4.70164        21.37012        -1.54895
C          5.96229        23.56861        -1.81687
C          4.71919        22.76412        -1.54653
C          6.00534        24.91167        -1.11218
C          4.71729        25.43134        -0.51734
C          5.92381        27.60593        -0.16126
C          4.73403        26.92526        -0.37482
C          5.90580        29.01837         0.17415
C          4.75881        29.77729         0.06967
C          5.98057        31.88557         0.48625
C          4.78158        31.22828         0.10496
C          6.07386        33.29961         0.42264
C          4.96981        34.05725        -0.08197
C          6.16959        36.19640         0.26967
C          5.06022        35.48752        -0.16780
C          6.30035        37.63214         0.02596
C          5.22903        38.35806        -0.47697
C          8.84469         3.89425         1.65016
C          7.59856         4.47949         1.43706
C          8.69770         6.41062         0.41593
C          7.52060         5.77279         0.89529
C          8.59071         7.76600        -0.10279
C          7.37351         8.50179         0.08102
C          8.60822        10.65885        -0.53657
C          7.29704         9.92697        -0.43955
C          8.58398        12.08122        -0.75032
C          7.38969        12.82544        -0.48725
C          8.55098        14.88631        -1.14522
C          7.40215        14.24463        -0.67750
C          8.47836        16.29786        -1.55724
C          7.23755        17.06360        -1.33551
C          8.47684        19.20794        -1.19386
C          7.25489        18.50404        -1.79775
C          8.49311        20.68469        -1.49879
C          7.22403        21.38150        -1.60853
C          8.45263        23.54577        -1.79942
C          7.21832        22.77210        -1.63842
C          8.42954        25.03884        -1.57716
C          7.16663        25.64705        -1.05428
C          8.41614        27.70402        -0.29515
C          7.20939        26.97663        -0.45308
C          8.43121        29.00511         0.27345
C          7.13952        29.55880         0.85008
C          8.42544        31.80566         1.18260
C          7.11468        31.08787         1.00118
C          8.46928        33.28253         1.07887
C          7.28647        33.97849         0.81447
C          8.58067        36.17467         1.11347
C          7.26749        35.45247         0.90245
C          8.70961        37.57459         0.65054
C          7.57895        38.25877         0.20240
C         11.25969         3.78137         1.53958
C         10.04454         4.47818         1.16356
C         11.05858         6.33458        -0.38640
C          9.94780         5.72335         0.46893
C         11.01308         7.82629        -0.38331
C          9.79248         8.49138        -0.43012
C         10.98698        10.56754        -1.29570
C          9.77386         9.92696        -0.65422
C         11.02765        12.07123        -1.14831
C          9.80649        12.77683        -1.05246
C         11.01839        14.91424        -1.42245
C          9.79048        14.19545        -1.24291
C         11.04725        16.33521        -1.51323
C          9.78938        17.06556        -1.70885
C         10.98370        19.21064        -1.46799
C          9.77564        18.51888        -1.53813
C         10.96666        20.64711        -1.38708
C          9.71332        21.35031        -1.49006
C         10.99235        23.55529        -1.35588
C          9.77103        22.80815        -1.73774
C         10.97726        24.94887        -1.15892
C          9.74015        25.76272        -1.36956
C         10.96386        27.72474        -0.23709
C          9.71857        27.24902        -0.96137
C         10.90863        29.03257         0.27829
C          9.65810        29.70185         0.51277
C         10.88427        31.75637         1.26714
C          9.68027        31.05320         1.00182
C         10.91403        33.17299         1.52373
C          9.71752        33.93992         1.33737
C         11.01781        36.02376         1.40687
C          9.80197        35.36454         1.26909
C         11.12604        37.43007         1.12026
C          9.99159        38.15802         0.68926
C         13.79271         3.69494         1.44114
C         12.50913         3.91340         0.92923
C         13.57474         6.48324         0.25971
C         12.44102         5.82259        -0.11902
C         13.51648         7.97607         0.29797
C         12.24414         8.60929        -0.16414
C         13.57270        10.66828        -0.91713
C         12.30470         9.90125        -0.90271
C         13.51451        12.11840        -1.18834
C         12.25750        12.77757        -1.27637
C         13.48152        14.90894        -1.52516
C         12.25033        14.20414        -1.39016
C         13.49389        16.34344        -1.51888
C         12.26153        17.05334        -1.47902
C         13.44758        19.22383        -1.41524
C         12.25080        18.50661        -1.48104
C         13.42949        20.65178        -1.38502
C         12.18880        21.36265        -1.34109
C         13.41807        23.46839        -0.94590
C         12.19175        22.79832        -1.20875
C         13.38492        24.86493        -0.68825
C         12.17689        25.59619        -0.72563
C         13.39913        27.54617         0.21252
C         12.17777        26.98621        -0.29610
C         13.42178        28.94705         0.68221
C         12.15010        29.71987         0.65859
C         13.29407        31.63809         1.75036
C         12.11294        31.04257         1.30578
C         13.33948        33.04819         2.00218
C         12.15597        33.80593         1.83952
C         13.47869        36.02824         2.17621
C         12.17328        35.28821         1.95619
C         13.58512        37.40162         1.55656
C         12.40404        38.03187         1.12048
C         16.19365         3.81775         1.08871
C         14.93089         4.41126         0.91696
C         16.05346         6.46983         0.15851
C         14.85816         5.77573         0.41796
C         16.07958         7.95971         0.03693
C         14.81716         8.73679         0.20101
C         16.04554        10.78817        -0.76883
C         14.78069        10.23548        -0.11257
C         16.00637        12.10010        -1.21088
C         14.73144        12.81490        -1.31240
C         15.91563        14.90571        -2.10710
C         14.70400        14.19700        -1.58054
C         15.94592        16.37011        -1.71459
C         14.74676        17.04074        -1.50097
C         15.98657        19.21402        -1.55970
C         14.74215        18.49684        -1.09645
C         15.92128        20.70283        -1.81953
C         14.66137        21.37950        -1.32032
C         15.92754        23.37277        -0.50947
C         14.65610        22.73170        -1.00868
C         15.95101        24.87792        -0.64018
C         14.65578        25.60436        -0.55019
C         15.87427        27.53422         0.56957
C         14.63925        26.92578         0.08554
C         15.83774        28.73580         1.26242
C         14.48544        29.29202         1.70333
C         15.72384        31.45799         2.55352
C         14.46102        30.77971         2.09964
C         15.77315        32.94337         2.53998
C         14.61920        33.69070         2.31070
C         15.84134        35.74451         2.78485
C         14.68132        35.15189         2.38068
C         16.02451        37.73032         1.86121
C         14.79310        38.06711         1.24189
C         18.64763         3.80207         0.77104
C         17.38082         4.45717         0.68842
C         18.51551         6.46017        -0.18730
C         17.31605         5.80652         0.21919
C         18.45337         7.81324        -0.77599
C         17.26162         8.64323        -0.54142
C         18.50168        10.69691        -1.19538
C         17.26351        10.00384        -0.83834
C         18.49236        12.10016        -1.43316
C         17.23103        12.82799        -1.52539
C         18.44997        14.90772        -2.26939
C         17.20468        14.16946        -1.84915
C         18.40593        16.40231        -1.97583
C         17.20015        17.07802        -1.79150
C         18.38583        19.31046        -2.21067
C         17.15212        18.54242        -1.77764
C         18.41941        20.71575        -1.63739
C         17.20743        21.38626        -1.41086
C         18.42534        23.41235        -0.79963
C         17.20692        22.72346        -0.97607
C         18.43227        24.86154        -0.49867
C         17.17636        25.55952        -0.16160
C         18.39894        27.43640         0.85520
C         17.15306        26.82831         0.37544
C         18.36718        28.66780         1.56087
C         17.05490        29.28033         1.90312
C         18.30769        31.37791         2.81135
C         17.00721        30.64693         2.57417
C         18.34305        32.84926         2.73072
C         17.06862        33.57528         2.89626
C         18.39797        35.77696         2.52692
C         17.14490        35.08546         2.91747
C         18.45472        37.09403         1.95948
C         17.32359        37.83770         1.41456
C         19.79711         4.45792         0.40545
C         20.98383         6.50502        -0.35458
C         19.75086         5.79864        -0.08217
C         21.01053         7.80287        -0.74652
C         19.77407         8.52732        -1.08811
C         20.94462        10.72713        -1.29356
C         19.74240        10.00379        -1.17406
C         20.93775        12.09788        -1.47488
C         19.71911        12.81136        -1.58024
C         20.88024        14.99819        -1.74570
C         19.71734        14.23476        -1.80537
C         20.86424        16.38681        -1.90557
C         19.65860        17.12655        -1.99468
C         20.86737        19.29325        -1.87354
C         19.66995        18.54877        -1.98457
C         20.87275        20.65396        -1.63754
C         19.65369        21.37528        -1.40958
C         20.87677        23.36935        -0.50583
C         19.65716        22.73506        -0.96301
C         20.91114        24.62751         0.00058
C         19.74006        25.51477        -0.09227
C         20.81309        27.32941         1.22723
C         19.64630        26.77640         0.68081
C         20.78046        28.56127         1.86345
C         19.56813        29.25164         2.01806
C         20.79433        31.45405         2.31948
C         19.61015        30.62634         2.58817
C         20.76758        32.79921         2.47780
C         19.54509        33.54378         2.71797
C         20.83608        35.67247         2.47904
C         19.59530        35.01433         2.62614
C         20.89436        37.00448         2.07737
C         19.72365        37.67143         1.73247
O          9.18342        23.18301        -3.02302
O         17.13795        34.31951         4.17597
O         13.19723        29.84261        -0.43902
O         19.23348        25.63938        -1.46294
O          7.64174        35.99079         2.22551
O          6.18941        15.07270         1.25950
O          9.11029        25.67718        -2.69885
O          2.74235        23.21552        -2.88523
O          4.75568        12.52514         1.97928
O         12.61646         8.61125         1.27657
O         12.52070         4.45177        -0.38562
O         12.53135        35.87273         3.27324
O          1.14461        18.39486        -1.97584
O         15.67176         8.53089         1.37399
O          3.17646        28.22303         1.05922
O          9.04551        16.54444        -2.88223
O         16.87869        29.44569         3.37261
O         19.06371        30.81363         3.92937
O         14.75774        30.94329         3.53274
O          7.57143        31.44304         2.35473
O         13.23455         9.79610        -2.05345
O         15.42676        25.48667        -1.84635
O         15.84614        37.09395         3.10682
O         18.98093         7.88625        -2.14435
O          3.86861        35.81333        -2.23414
O          7.40488        18.57181        -3.23223
H          6.64273        18.11805        -3.64779
O          0.72113        33.93979         0.60022
H          1.27171        33.46566         1.25911
O         14.13153        28.53147         2.88414
H         14.67564        28.90319         3.62056
O          3.27927        10.81011        -0.88887
H          3.30464         9.88778        -1.21995
O         15.75503        14.90574        -3.58915
H         14.94651        15.42402        -3.79384
O         14.65627        10.92121         1.15829
H         15.15116        10.38197         1.81762
O          5.94099         3.13884         0.38908
H          5.75032         3.89944        -0.21063
O         18.49055        14.80959        -3.74069
H         17.56080        14.93536        -4.05572
O          9.75472        28.03419        -2.19258
H          9.34346        27.47261        -2.89406
O         18.25098        19.47656        -3.67662
H         19.06027        19.93298        -3.99281
O          5.70192         5.90486        -0.64290
H          6.33238         6.24939        -1.31253
O          5.90072        23.90012        -3.24996
H          5.92293        23.06034        -3.75675
O          7.06610        28.97732         2.18966
H          7.35111        29.68875         2.81472
O         10.74417         5.89287        -1.75703
H         11.03544         4.95483        -1.81373
O         15.83134        20.84419        -3.27401
H         16.62573        20.39311        -3.66034
O          3.41684        18.92691        -3.06063
H          2.45649        18.88536        -3.28809
O         10.79552        10.32781        -2.72749
H         11.69888        10.22694        -3.11348
O         15.89843        23.16639         0.94905
H         15.84852        22.20141         1.11868
O          3.84994        15.83297         1.99341
H          4.80550        15.91731         2.22737
O          8.32802        19.06481         0.25972
H          9.06967        19.54094         0.68966
O         14.80578        18.51624         0.38158
H         15.51993        17.89959         0.65044
O          3.28684        37.76405         0.77570
H          3.33563        38.68928         1.09582
O          4.65944        24.88679         0.86387
H          4.18312        25.54041         1.42111
O          6.89787         9.75368        -1.85434
H          7.70963         9.55828        -2.37158
O          5.69929         9.06759         2.58440
H          5.21088         9.85076         2.92134
H          2.00156         3.15738         4.25977
H         -0.08872         4.46063         4.66248
H         -0.31820         6.76030         3.81216
H         -0.49186         8.52391         3.06734
H         -0.60752        10.84718         2.33146
H         -0.81839        12.47618         1.16491
H         -0.85877        14.87996         0.65583
H         -0.64601        16.86579         1.20147
H         -0.76968        19.24043         0.61950
H         -1.09881        20.87202        -0.53530
H         -1.15246        23.32152        -0.72634
H         -1.16406        25.21824        -1.59353
H         -1.11195        27.64612        -1.34666
H         -1.06024        29.53005        -1.19309
H         -0.94497        31.96853        -1.14173
H         -0.56043        33.68809        -2.12908
H         -0.35939        36.07664        -2.64114
H          0.98178        38.24850        -2.47981
H          4.24036         2.98873         3.24170
H          2.95461        39.47125        -1.65874
H          6.49397         2.85200         2.36873
H          5.33706        39.43736        -0.66268
H          8.89906         2.91167         2.14258
H          7.67774        39.31647        -0.08448
H         11.19705         3.15927         2.44589
H         10.11516        39.20823         0.38624
H         13.94738         3.01736         2.29405
H         12.48376        39.06199         0.74138
H         16.25039         2.80132         1.50548
H         14.75901        38.88389         0.50460
H         18.68733         2.76516         1.13428
H         17.53527        38.47870         0.54536
H         20.77214         3.95518         0.48005
H         21.92819         5.97972        -0.14778
H         21.97617         8.32257        -0.81748
H         21.90822        10.20155        -1.27367
H         21.89717        12.61719        -1.59346
H         21.84932        14.52181        -1.54157
H         21.82841        16.91075        -1.88569
H         21.83783        18.78026        -1.92045
H         21.83764        21.17037        -1.55822
H         21.79353        22.76573        -0.45946
H         21.83922        24.99412         0.46022
H         21.77521        26.81266         1.11991
H         21.71206        28.98598         2.25882
H         21.72084        30.97395         1.97498
H         21.69918        33.34906         2.29609
H         21.77884        35.14442         2.66656
H         21.86752        37.50144         1.96447
H         19.77552        38.68485         1.31023
