         671
 CSIRO Nanostructure Databank - Neutral Graphene Oxide Data Set
C          5.86462        31.82140        -0.72139
C          5.91112        33.17637        -0.66056
C          8.44923        27.43178        -0.80978
C          8.40086        28.80807        -0.76290
C          7.04340        29.50299        -0.70993
C          8.39340        31.74363        -0.82647
C          7.08520        31.01132        -0.94321
C          8.40032        33.19536        -0.53812
C          7.15346        33.93198        -0.61305
C          8.37118        36.06995        -0.37552
C          7.16445        35.32098        -0.59901
C          8.43432        37.44668        -0.41253
C         10.95326        23.16133        -0.85656
C         10.90821        24.51520        -0.62989
C          9.70597        25.29239        -0.79408
C         10.90716        27.43229        -0.49544
C          9.67868        26.68297        -0.69448
C         10.86736        28.82892        -0.55661
C          9.63072        29.56458        -0.66076
C         10.82997        31.73412        -0.44909
C          9.61949        30.97156        -0.56656
C         10.85081        33.15414        -0.28684
C          9.58549        33.84556        -0.24134
C         10.86115        36.01620         0.30241
C          9.56795        35.29681         0.04413
C         10.89653        37.48227         0.10448
C          9.64397        38.20119        -0.13257
C         10.79828        40.39689         0.31874
C          9.64289        39.57480        -0.19371
C         10.92830        41.77240        -0.29700
C         13.39445        18.80361        -0.24563
C         13.32281        20.21391        -0.14096
C         12.16086        20.90973        -0.44118
C         13.48895        23.09011        -0.50386
C         12.19354        22.36210        -0.69942
C         13.45423        24.62068        -0.56627
C         12.12684        25.21094        -0.05181
C         13.35802        27.36984        -0.15329
C         12.14742        26.71669        -0.27648
C         13.39685        28.83981        -0.13074
C         12.11231        29.59806        -0.35733
C         13.14629        31.85691        -0.93935
C         12.05091        31.05491        -0.63220
C         13.27613        33.19885        -0.55270
C         12.09162        33.85687        -0.19224
C         13.39344        36.03202        -0.09920
C         12.18562        35.24997         0.39622
C         13.36657        37.42115        -0.02497
C         12.10725        38.14136         0.13788
C         13.40867        40.34545         0.10508
C         12.11824        39.61680         0.32636
C         13.39895        41.79221        -0.19682
C         12.14216        42.47987        -0.34439
C         13.38958        44.62201        -0.49045
C         12.18125        43.89213        -0.55545
C         13.42094        46.03734        -0.56673
C         15.86626        14.57015        -0.39449
C         15.83286        15.95009        -0.11542
C         14.63392        16.68813        -0.23780
C         15.84913        18.78114         0.19410
C         14.60424        18.08610        -0.07656
C         15.82455        20.21423         0.40023
C         14.49019        20.92558         0.51545
C         15.69828        23.06602         0.65741
C         14.61644        22.40159         0.18696
C         15.66877        24.55078         0.91727
C         14.58501        25.28918         0.18356
C         15.77231        27.38423         0.67189
C         14.58451        26.65634         0.21200
C         15.79989        28.80025         0.57183
C         14.73875        29.47187        -0.09076
C         15.93300        31.62548         0.10164
C         14.98095        30.76791        -0.50393
C         15.86442        33.08183        -0.07275
C         14.65727        33.83981        -0.69942
C         15.84350        35.96925        -0.25027
C         14.64729        35.30792        -0.28874
C         15.90081        37.45940        -0.45758
C         14.58777        38.18970        -0.24872
C         15.90073        40.31653        -0.47469
C         14.61659        39.55787        -0.21224
C         15.86281        41.78615        -0.12187
C         14.61655        42.49160        -0.24724
C         15.86017        44.62638        -0.18448
C         14.63480        43.91984        -0.31257
C         15.87145        46.05025        -0.26412
C         14.63357        46.75252        -0.45826
C         15.85118        48.91282        -0.46188
C         14.65808        48.16997        -0.47702
C         15.71067        50.34599        -0.35197
C         18.22333        10.31731        -1.35954
C         17.89482        11.46308        -0.61556
C         16.96132        12.47678        -0.85191
C         18.27603        14.47514         0.11012
C         17.04526        13.80585        -0.31105
C         18.26880        15.89066         0.34678
C         17.05829        16.62233         0.23130
C         18.32479        18.73465         0.52398
C         17.03472        18.04683         0.34954
C         18.28269        20.27629         0.65631
C         16.96473        20.91575         0.70850
C         18.18202        23.08984         1.18091
C         16.86844        22.31880         1.27215
C         18.19540        24.48878         1.24259
C         17.01085        25.23423         0.68557
C         18.13495        27.41117         1.36363
C         16.95506        26.70803         1.01333
C         18.14831        28.81899         1.29377
C         16.98542        29.53005         0.86428
C         18.15080        31.70634         1.22297
C         16.97646        30.95578         0.76889
C         18.16235        33.18301         0.88092
C         16.99815        33.79889         0.21018
C         18.28859        35.97726         0.48519
C         17.16799        35.22911        -0.25086
C         18.25195        37.38054         0.52489
C         16.95289        38.13206         0.42342
C         18.24602        40.27247         0.36576
C         17.10084        39.60268         0.10653
C         18.25879        41.76418         0.61187
C         17.04151        42.48294         0.09138
C         18.30474        44.62464         0.27590
C         17.08071        43.91522         0.06741
C         18.30587        46.06319         0.19601
C         17.09228        46.77641        -0.13805
C         18.39168        48.84094        -0.26558
C         17.11436        48.18714        -0.35519
C         18.57379        50.17848        -0.68429
C         16.71229        51.24933        -0.73102
C         18.29296        53.17294        -0.50571
C         16.98379        52.57575        -0.37507
C         18.34577        54.57878        -0.56713
C         20.84565         6.30012        -2.23426
C         20.83584         7.67922        -1.95081
C         19.61786         8.40970        -1.86703
C         20.75889        10.43508        -1.02813
C         19.52391         9.71535        -1.33681
C         20.81105        11.75463        -0.57779
C         19.69520        12.42400        -0.01572
C         20.78985        14.56633         0.19119
C         19.54533        13.82551         0.05737
C         20.73801        15.89219         0.73495
C         19.49869        16.58083         0.76127
C         20.66242        18.70943         1.54521
C         19.47722        17.97977         1.01589
C         20.67199        20.25337         1.66290
C         19.44643        20.97493         1.16876
C         20.64562        23.12106         1.31484
C         19.41676        22.38445         1.29222
C         20.63073        24.51583         1.42054
C         19.39476        25.20245         1.48534
C         20.61978        27.38606         2.03896
C         19.28303        26.62874         2.00890
C         20.63664        28.84721         1.75214
C         19.37376        29.57271         1.45979
C         20.68051        31.68814         1.53376
C         19.40833        30.93808         1.37093
C         20.65470        33.16537         1.33396
C         19.50702        33.82353         0.61114
C         20.65288        35.99223         1.28687
C         19.48733        35.31480         0.83063
C         20.57038        37.41329         1.32297
C         19.41866        38.08196         0.86246
C         20.80902        40.25780         0.76090
C         19.50831        39.52512         0.57584
C         20.70904        41.73376         0.97267
C         19.58303        42.44676         0.23565
C         20.72629        44.61209         0.83427
C         19.52990        43.93129         0.53773
C         20.73384        46.06510         0.77579
C         19.50408        46.76391         0.44890
C         20.72809        48.92845         0.50823
C         19.54118        48.18093         0.27271
C         20.77164        50.31173         0.27129
C         19.62980        51.00264        -0.26304
C         20.73560        53.19440        -0.12914
C         19.54998        52.44613        -0.37178
C         20.78639        54.59485        -0.32152
C         19.56212        55.30476        -0.58782
C         20.80344        57.42915        -0.87134
C         19.58401        56.69724        -0.81502
C         20.82894        58.81034        -1.00063
C         23.34464         3.56966        -2.76623
C         22.12314         4.20705        -2.65430
C         23.28431         6.27634        -2.01601
C         22.06511         5.58858        -2.30379
C         23.25431         7.65336        -1.64160
C         22.06781         8.36090        -1.67367
C         23.31470        10.46312        -1.04367
C         22.04162         9.86808        -1.62428
C         23.32321        11.90126        -0.81413
C         22.00253        12.63330        -0.92345
C         23.27805        14.53836         0.21048
C         21.98456        13.92384        -0.13333
C         23.27202        15.84365         0.93719
C         21.96440        16.43678         1.44803
C         23.26287        18.75313         1.44430
C         21.98922        17.97317         1.61602
C         23.25099        20.17109         1.32133
C         21.95584        20.89663         1.14205
C         23.18477        23.15444         1.19984
C         21.92042        22.39550         1.08057
C         23.17029        24.50768         1.29325
C         21.89148        25.32468         1.18646
C         23.15865        27.42558         1.73665
C         21.93029        26.58286         2.09386
C         23.13839        28.74220         1.41260
C         21.85718        29.47021         1.11736
C         23.10541        31.63933         0.93219
C         21.96626        30.97273         1.31657
C         23.05350        33.11412         0.55181
C         21.93182        33.89213         1.15805
C         23.26931        35.90095         1.31566
C         21.94967        35.25381         1.34398
C         23.48671        37.16967         1.83349
C         21.63616        38.25858         1.82502
C         23.19414        40.18787         1.96562
C         21.90207        39.54142         1.45802
C         23.20962        41.72026         1.71568
C         21.91794        42.46774         1.45725
C         23.17888        44.58965         1.15926
C         21.95052        43.91380         1.13361
C         23.15263        46.05594         1.27363
C         21.90546        46.77055         0.99002
C         23.22568        48.93827         0.84162
C         21.90814        48.26541         1.18166
C         23.19963        50.35994         0.66920
C         22.00096        51.03813         0.46939
C         23.27708        53.25814         0.26898
C         21.94446        52.50618         0.37683
C         23.27728        54.62989        -0.26415
C         22.03876        55.31348        -0.38662
C         23.28748        57.32656        -1.00576
C         22.06016        56.68671        -0.74881
C         23.25233        58.73606        -1.54348
C         22.13303        59.55002        -0.87677
C         23.32174        61.54854        -1.73376
C         22.13578        60.95974        -1.41899
C         24.55158         4.27569        -2.57390
C         25.76186         6.41622        -2.15053
C         24.53958         5.62087        -2.20143
C         25.76554         7.70244        -1.72093
C         24.51286         8.24631        -1.05561
C         25.73815        10.35799        -0.39974
C         24.47493         9.74734        -0.96586
C         25.75314        11.87656        -0.48917
C         24.50143        12.58844        -0.63413
C         25.78885        14.84847        -0.33333
C         24.44556        14.11017        -0.66942
C         25.67699        16.01662         0.62281
C         24.50757        16.65591         0.91689
C         25.70504        18.81191         1.11819
C         24.49746        18.08034         1.25091
C         25.70572        20.21746         1.18838
C         24.45167        20.89617         1.20028
C         25.69692        23.04040         1.46538
C         24.45870        22.38404         0.88679
C         25.69711        24.53448         1.57027
C         24.45098        25.29791         1.13277
C         25.70135        27.43576         1.37797
C         24.46037        26.66169         1.87392
C         25.55438        28.67551         0.53947
C         24.30494        29.43920         0.77771
C         25.53296        31.56551         0.34175
C         24.34142        30.91959         0.64525
C         25.52118        33.04949        -0.00105
C         24.37692        33.80645         0.60177
C         25.67495        35.90780         0.81388
C         24.44454        35.18211         0.86505
C         25.73007        37.32316         0.97976
C         24.57233        38.02828         1.45877
C         25.64584        40.17661         1.06659
C         24.49543        39.46496         1.46385
C         25.59966        41.66106         0.70146
C         24.46198        42.43470         1.33132
C         25.65095        44.59053         0.95284
C         24.42411        43.90713         1.08862
C         25.69425        46.01751         0.93790
C         24.47212        46.80194         1.20065
C         25.68973        48.86984         0.54564
C         24.44224        48.24219         0.86216
C         25.64634        50.31441         0.08684
C         24.51657        51.09131         0.77639
C         25.77578        53.27177         0.28462
C         24.49614        52.49129         0.24660
C         25.75754        54.43036        -0.70719
C         24.49272        55.25481        -0.58238
C         25.78493        57.31713        -1.11130
C         24.50638        56.62131        -0.93728
C         25.78046        58.70670        -1.35557
C         24.58541        59.45334        -1.47857
C         24.56573        60.83188        -1.65889
C         27.00114         8.56527        -1.87248
C         28.17900        10.42743        -0.68877
C         27.02624         9.79463        -0.98811
C         28.14115        11.68387         0.16113
C         26.93288        12.51510        -0.24286
C         28.28575        14.65434         0.03258
C         26.93314        13.94106         0.20856
C         28.24657        15.88879         0.92396
C         26.93225        16.64482         1.19679
C         28.26112        18.79868         1.15528
C         26.99133        18.09806         0.73866
C         28.23541        20.24293         1.19518
C         26.98166        20.93857         1.19745
C         28.20365        23.07475         1.34558
C         26.99222        22.33933         1.32449
C         28.18909        24.51620         1.28860
C         26.98628        25.22973         1.41999
C         28.12533        27.34630         0.61170
C         26.97180        26.67661         1.22294
C         28.09848        28.67303         0.30327
C         26.80055        29.36476        -0.05280
C         27.98102        31.56232        -0.08666
C         26.80202        30.87404         0.14531
C         28.00846        33.02625        -0.03168
C         26.84794        33.71747         0.20800
C         27.96641        35.94294        -0.15723
C         26.96073        35.14459         0.67947
C         28.22824        37.33581         0.47407
C         26.91447        38.07747         0.69473
C         28.01906        40.25977         0.22873
C         26.85021        39.47102         0.73184
C         28.20219        41.68319         0.74021
C         26.89770        42.44439         0.79528
C         28.13535        44.58866         0.63967
C         26.89510        43.83202         0.78846
C         28.13959        45.98821         0.62119
C         26.89445        46.71381         0.69294
C         28.11329        48.81278        -0.04557
C         26.87052        48.13659         0.48930
C         28.18362        50.27038         0.37173
C         26.95609        51.06237         0.23341
C         28.27292        53.13995        -0.03852
C         27.01586        52.42583         0.15266
C         28.22117        54.55286        -0.33879
C         27.03651        55.23258        -0.60944
C         26.99356        56.61631        -0.90497
C         29.44513        12.44861         0.21365
C         30.75175        14.55840         0.38362
C         29.51633        13.81333         0.30820
C         30.78855        15.95149         0.55493
C         29.53352        16.63438         0.99542
C         30.69967        18.84398         0.66730
C         29.47004        18.10551         1.09806
C         30.73157        20.23767         1.24221
C         29.44614        20.97287         1.26176
C         30.68639        23.13379         1.23447
C         29.46161        22.39291         1.29947
C         30.64754        24.53299         1.04600
C         29.41045        25.19973         1.01462
C         30.58272        27.40890         1.04599
C         29.41738        26.60022         0.47306
C         30.52736        28.83102         0.52467
C         29.34919        29.40215         0.13811
C         30.52427        31.59366        -0.14920
C         29.26323        30.80225        -0.43175
C         30.45850        33.00793        -0.61414
C         29.23419        33.79331        -0.31978
C         30.34223        35.95311        -1.08389
C         29.24236        35.16119        -0.38979
C         30.45070        37.42756        -0.67534
C         29.29635        38.08998        -0.29050
C         30.52155        40.29761        -0.37624
C         29.24298        39.55808        -0.27824
C         30.55931        41.68371        -0.16891
C         29.25575        42.45664        -0.09852
C         30.58735        44.52105         0.42444
C         29.38173        43.87956         0.39891
C         30.69375        45.99386         0.78681
C         29.39257        46.72759         0.51265
C         30.64656        48.79983        -0.00363
C         29.39680        48.07201         0.24274
C         30.67270        50.18105        -0.14674
C         29.52147        51.00696         0.22189
C         29.46712        52.43767        -0.06643
C         31.99265        16.69818         0.56118
C         33.20433        18.83694         0.70514
C         32.01197        18.10143         0.73123
C         33.24455        20.26158         0.81550
C         32.02801        20.97282         1.29276
C         33.14534        23.16934         0.65078
C         32.04494        22.49021         1.44626
C         33.07164        24.53421         0.44063
C         31.87610        25.29315         0.76061
C         33.05882        27.44167         0.35327
C         31.86899        26.67821         0.68484
C         33.04742        28.84867         0.31023
C         31.79684        29.61254         0.71205
C         32.99278        31.74596         0.11975
C         31.71127        30.99101         0.11402
C         32.98155        33.17220        -0.31699
C         31.71688        33.75553        -0.84967
C         32.97209        35.97772        -1.02829
C         31.68833        35.23371        -1.10098
C         32.95341        37.45648        -0.93983
C         31.68516        38.15074        -0.86596
C         32.95282        40.28885        -0.71852
C         31.72171        39.57312        -0.64387
C         33.01142        41.64879        -0.38504
C         31.80618        42.34360        -0.07508
C         33.18059        44.52490         0.09145
C         31.83984        43.74490         0.34191
C         33.04250        45.94509        -0.18070
C         31.88033        46.65867         0.09297
C         31.82825        48.03315        -0.19570
C         34.38391        20.99369         0.53059
C         35.55154        23.10110         0.09781
C         34.37779        22.43374         0.41764
C         35.55839        24.51117        -0.27977
C         34.20228        25.27732        -0.14149
C         35.46490        27.42787        -0.20916
C         34.25805        26.73746         0.00692
C         35.47431        28.85762        -0.17889
C         34.24764        29.57128         0.02885
C         35.45542        31.70425        -0.28894
C         34.26374        30.99929        -0.01739
C         35.46324        33.14001        -0.49297
C         34.25413        33.85769        -0.59998
C         35.45860        35.95268        -0.82889
C         34.24515        35.25342        -0.77117
C         35.48106        37.45290        -0.71663
C         34.15610        38.12303        -0.96503
C         35.48836        40.26527        -1.03613
C         34.15988        39.59133        -1.29472
C         35.47916        41.65426        -0.75743
C         34.28627        42.37193        -0.49651
C         34.30914        43.76586        -0.41501
C         36.76990        25.31909        -0.24202
C         37.94036        27.46205        -0.41283
C         36.72771        26.70691        -0.32457
C         37.94395        28.85516        -0.44971
C         36.69420        29.57713        -0.34181
C         37.92334        31.71445        -0.58190
C         36.69315        30.99215        -0.39981
C         37.92664        33.11713        -0.69816
C         36.68811        33.84020        -0.68640
C         37.92700        35.98737        -1.04864
C         36.67898        35.25232        -0.84123
C         37.90242        37.33378        -1.35050
C         36.60884        38.08687        -1.56361
C         36.65780        39.55036        -1.20642
C         39.16165        29.59673        -0.57933
C         40.39374        31.73374        -0.78626
C         39.16683        30.98362        -0.64560
C         40.39351        33.09380        -0.88030
C         39.16230        33.85009        -0.85780
C         39.15213        35.23146        -1.00661
O         12.61899        29.37549         1.03329
O         29.26292        30.62787        -1.87881
O         18.62801        19.61223        -0.62510
O         22.52400        53.14510         1.56426
O         24.51697        28.65209        -0.49469
O         34.67460        24.79820        -1.42692
O         20.55412        32.63463         2.68317
O         21.20608        18.22252         2.82678
O         18.69110        11.64534         0.54490
O          7.80049        31.39417        -2.15930
O         17.91441        32.74393         2.24296
O         20.45851        39.77921        -0.56346
O         13.20183        22.54810        -1.84028
O         23.83883        46.52498         2.51018
O         23.56044        14.55734         1.64454
O         32.41075        35.53995        -2.34788
O          9.98277        35.63838         1.42968
O         25.51863        23.69396         2.75651
O         32.74427        44.06963         1.43649
O         14.23370        31.26194        -1.57974
O         21.87112        21.55498        -0.16227
O         28.95492        50.58276         1.54080
O         26.64872        27.56549         2.46862
O         12.92949        40.02178         1.48858
O         20.69344        28.38278         3.13706
O         20.81933        42.10771         2.36779
O         29.02164        15.84534         2.14763
O         17.67543        50.69108        -1.60974
O         24.11186        42.27509         2.74643
O         32.94089        32.83153         1.13243
O         28.15815        40.10505        -1.22913
O         22.51358        37.63741         2.71171
O         30.22715        18.79125        -0.68500
O         25.70477        10.01264         1.00093
O         31.48191        20.32722         2.50843
O         15.36689        24.66852         2.34487
H         14.40304        24.51739         2.46204
O         26.17282        15.50305        -1.56604
H         26.54902        16.40376        -1.37186
O         19.81493        33.59290        -0.80342
H         19.16359        34.11928        -1.34100
O         24.61425        26.38375         3.27009
H         25.53784        26.63063         3.52309
O         35.84512        37.75069         0.66983
H         35.18282        37.33053         1.25780
O         10.45132        40.68289         1.71615
H         11.31075        40.73319         2.20047
O         14.13622        20.91509         1.94156
H         14.28259        20.00742         2.28179
O         17.66010        35.14717        -1.63614
H         17.57360        36.05401        -2.01799
O         24.54285         7.76862         0.32545
H         25.01391         8.48158         0.85767
O         21.77186        15.91020         2.79095
H         22.24892        15.04573         2.82671
O         21.80169        25.78421        -0.18944
H         22.71890        25.98016        -0.50471
O         29.89488        36.02571        -2.47628
H         30.70439        35.93565        -3.03611
O         26.71606        13.86575         1.64797
H         27.12313        13.01587         1.96250
O         28.83879        37.20965         1.78826
H         28.35667        36.50237         2.28433
O         22.41634        59.65307         0.55162
H         23.25700        60.14966         0.64676
O         22.04657        26.07857         3.42829
H         22.06158        26.84481         4.04016
O         18.16917        41.88023         2.06278
H         17.25873        41.64481         2.33879
O         16.33450        37.60802        -1.85832
H         15.66180        37.16438        -2.42000
O         21.73170        48.45971         2.63254
H         22.43427        47.91659         3.06495
O         32.37085        22.76571         2.84450
H         31.96164        22.03686         3.36852
O         25.25563        41.66787        -0.72822
H         25.98207        41.21789        -1.21404
O         22.00776        10.29016        -3.03094
H         21.92341        11.28085        -3.02878
O         27.34622        36.16638        -1.43816
H         28.05737        36.23594        -2.11904
O         28.70986        41.54685         2.09177
H         28.73117        42.43501         2.50661
O         13.58969        25.03174        -1.94382
H         13.47233        24.22002        -2.49537
O         21.81015        12.98175        -2.34282
H         22.56892        13.58471        -2.56832
O         21.60508        29.29629        -0.31539
H         22.46264        29.36646        -0.79021
O         25.33543        50.27262        -1.33150
H         26.11262        49.86239        -1.77926
O         16.61674        22.17596         2.70019
H         16.28756        23.05249         3.01566
O         16.10267        40.32526        -1.92828
H         16.32039        39.39553        -2.19173
O         27.90831        11.31651         1.55887
H         27.07946        10.72825         1.55925
O         24.58717        22.51282        -0.56972
H         23.78150        22.08923        -0.95249
O         22.89922        58.63419        -2.95453
H         23.64791        58.20807        -3.42096
O         14.91224        33.88820        -2.13525
H         14.92092        32.95534        -2.45208
O         16.38248        38.08281         1.76651
H         17.05769        38.39298         2.40576
O          6.14567        28.91515        -1.65902
H          6.44094        29.18966        -2.55244
O         27.94207        48.86238        -1.51033
H         27.97782        47.94078        -1.84555
O         29.65449        26.44666        -0.96061
H         29.44788        27.30159        -1.39770
O         19.82035        42.31801        -1.17920
H         19.00803        42.58414        -1.65835
O         30.46799        27.45148         2.48422
H         31.02551        28.19991         2.80141
O         28.77125        42.62591        -1.45399
H         28.57326        41.72009        -1.80636
O         25.81712        53.85494         1.62036
H         25.78607        53.10383         2.25742
O         18.87298        26.45334         3.39364
H         19.20708        27.23700         3.88788
O         20.65485        20.59865         3.08076
H         20.94065        19.79326         3.58070
O         28.48824        15.08274        -1.33785
H         29.41163        15.40342        -1.42228
O         24.58519        25.56067        -0.29287
H         24.63720        24.68414        -0.74569
O         24.02848        14.47362        -2.01426
H         24.80602        14.92739        -2.43442
O         25.32618        33.08519        -1.46172
H         24.35171        33.02918        -1.62297
O         23.19021        40.01226         3.39460
H         23.75548        40.72165         3.77703
O         17.21629        25.17393        -0.76021
H         18.08950        25.56900        -0.96749
O         26.73462        16.67727         2.62165
H         26.74934        15.74426         2.93116
O         34.00013        39.64939        -2.77209
H         33.14049        39.22631        -2.98818
O         26.74694        29.17869        -1.49386
H         25.79625        29.21046        -1.75305
O         36.26980        37.96744        -2.97040
H         35.50645        38.57462        -3.14610
O         25.72508        53.83045        -2.03345
H         25.80315        54.55034        -2.69344
O         22.66497        33.05155        -0.90030
H         21.68690        33.21259        -0.97202
O         31.05136        33.07764        -1.97464
H         29.33129        31.51425        -2.29531
O         27.04738        18.06992        -0.73642
H         27.92728        18.42202        -1.01462
O         27.07135         8.99605        -3.25368
H         26.27016         9.52459        -3.44912
O         31.91584        29.82758         2.16915
H         32.57683        30.54016         2.31287
O         24.84959        51.19446         2.19975
H         24.06394        51.58503         2.64457
O         12.10298        24.98298         1.38776
H         11.32024        25.44544         1.75495
O         27.49101        34.99792         2.05150
H         26.78166        34.60767         2.60513
O         30.93931        46.06202         2.21938
H         31.72680        45.49214         2.39150
O         12.46408        35.04290         1.81055
H         11.59138        35.03223         2.27047
H          4.90019        31.29635        -0.65495
H          4.97343        33.74455        -0.56417
H          7.50605        26.87168        -0.90076
H          6.60061        29.31782         0.30699
H          6.22225        35.87192        -0.74027
H          7.52543        38.02005        -0.65116
H         10.04371        22.63406        -1.18699
H          8.77514        24.75910        -1.04414
H          8.70366        40.10400        -0.41632
H          9.99380        42.34465        -0.40837
H         12.49699        18.24790        -0.55940
H         11.25909        20.35288        -0.74371
H         11.23429        44.43547        -0.69159
H         12.47996        46.59229        -0.69691
H         14.93804        14.07680        -0.71851
H         13.70409        16.15668        -0.48908
H         13.70091        48.70955        -0.53438
H         14.76841        50.72824         0.06873
H         17.47773         9.88636        -2.04514
H         16.13690        12.27813        -1.55352
H         16.18429        53.20031         0.05056
H         17.40198        55.13642        -0.66085
H         19.89550         5.77554        -2.41715
H         18.68441         7.89723        -2.14905
H         18.63212        57.23362        -0.94625
H         19.88571        59.37420        -1.07207
H         23.38295         2.50653        -3.04282
H         21.18865         3.66110        -2.84821
H         23.35030        62.60898        -2.02546
H         21.20164        61.54097        -1.42357
H         25.51081         3.76164        -2.73108
H         26.68282         5.96342        -2.55153
H         26.74355        59.23907        -1.39999
H         25.51040        61.38892        -1.74484
H         27.91935         7.94947        -1.69432
H         29.14767        10.04154        -1.04555
H         29.17331        55.10553        -0.37536
H         27.93828        57.18202        -0.92916
H         30.36400        11.85304         0.34372
H         31.70209        14.01220         0.26807
H         31.60581        50.67632        -0.45494
H         30.38904        52.93832        -0.39926
H         32.94758        16.16258         0.43202
H         34.15500        18.30714         0.52925
H         33.85672        46.44280        -0.72988
H         32.73969        48.54092        -0.54617
H         35.30625        20.46255         0.24907
H         36.50628        22.55352         0.11059
H         36.43816        42.19172        -0.70474
H         35.20446        44.31341        -0.74485
H         37.73997        24.81189        -0.12898
H         38.89378        26.91750        -0.48387
H         38.84987        37.85598        -1.55871
H         37.62830        40.05734        -1.08350
H         40.11199        29.04519        -0.63931
H         41.34233        31.17761        -0.81910
H         41.34136        33.64111        -0.99049
H         40.10463        35.76525        -1.14648
