         429
 CSIRO Nanostructure Databank - Neutral Graphene Oxide Data Set
C          1.21327         3.34154        -0.64239
C          0.04795         3.89855        -0.09281
C          1.19908         6.02594         0.21896
C          0.04048         5.21713         0.32950
C          1.22570         7.38549         0.71933
C          0.14778         7.86480         1.49896
C          1.33775         9.93622         1.83322
C          0.22374         9.11178         2.08096
C          1.22117        12.23851         1.74104
C         -0.03575        12.90257         1.73342
C          1.01554        14.87256         0.78438
C         -0.15184        14.16738         1.19438
C          1.02193        16.27056         0.68809
C         -0.17139        17.04890         0.59046
C          1.07970        19.17927         0.57404
C         -0.14766        18.42206         0.54618
C          1.07316        20.61878         0.47794
C         -0.12604        21.38101         0.37697
C          1.12265        23.48808         0.32608
C         -0.10136        22.75630         0.30065
C          1.15738        24.92685         0.19502
C         -0.06290        25.71763         0.10936
C          1.23949        27.61364        -0.82201
C         -0.03664        27.00774        -0.28445
C          1.25199        29.12144        -0.85862
C          0.09198        29.81627        -1.20713
C          1.28861        31.93788        -1.21869
C          0.09979        31.20203        -1.35965
C          1.32044        33.37263        -1.43822
C          0.14634        34.11862        -1.67863
C          1.43199        36.15763        -1.99854
C          0.19687        35.48089        -1.94350
C          1.50096        37.55781        -2.32384
C          3.56192         3.48424        -1.44726
C          2.36324         4.11120        -0.78399
C          3.55127         6.28885        -0.50010
C          2.37166         5.47029        -0.36381
C          3.50841         7.64034        -0.14359
C          2.36229         8.22275         0.48859
C          3.56886        10.46716         0.75110
C          2.39981         9.57927         0.98512
C          3.54840        11.91420         0.89851
C          2.34416        12.69366         1.07150
C          3.54380        14.85756         0.71614
C          2.27099        14.08264         0.45619
C          3.55858        16.25290         0.77158
C          2.28726        17.01578         1.05582
C          3.53593        19.17977         0.66251
C          2.30087        18.48053         0.67785
C          3.52643        20.58968         0.55846
C          2.31172        21.32497         0.49816
C          3.58078        23.48841         0.50700
C          2.33648        22.76431         0.42435
C          3.60797        24.90943         0.45314
C          2.38093        25.61318         0.19573
C          3.61201        27.74342         0.02390
C          2.44335        27.02650        -0.12293
C          3.67456        29.14970        -0.29903
C          2.46834        29.83218        -0.68666
C          3.74180        31.94329        -0.82560
C          2.49451        31.24346        -0.89773
C          3.78554        33.33681        -1.13437
C          2.57786        34.04478        -1.43641
C          3.89948        36.09511        -1.83178
C          2.63007        35.43616        -1.73822
C          3.93928        37.50773        -2.17314
C          2.70168        38.20193        -2.40852
C          6.03002         3.51432        -1.19791
C          4.85564         4.21705        -1.18821
C          5.99704         6.33416        -0.74454
C          4.81162         5.64506        -0.90580
C          5.97475         7.71420        -0.20937
C          4.70836         8.51321        -0.42404
C          5.98801        10.59183         0.15759
C          4.74675         9.86409         0.27510
C          6.01233        12.01773         0.44152
C          4.76356        12.67056         0.73003
C          5.96421        14.82767         1.10175
C          4.73939        14.09719         0.81918
C          5.98813        16.27334         1.00604
C          4.79880        16.97434         0.84656
C          5.99209        19.11349         0.86630
C          4.79580        18.44476         0.79733
C          6.05972        20.56701         0.62417
C          4.79168        21.33480         0.48204
C          6.00032        23.51001         0.87850
C          4.80544        22.80238         0.67728
C          6.04305        24.93102         0.79049
C          4.83016        25.61695         0.57784
C          6.11641        27.78096         0.42241
C          4.79590        27.11493         0.72126
C          6.12946        29.14471         0.12671
C          4.89587        29.85015        -0.18839
C          6.17967        31.96520        -0.40054
C          4.93932        31.24866        -0.48555
C          6.23234        33.32973        -0.78414
C          5.03927        34.01652        -1.17211
C          6.40491        36.00688        -1.93584
C          5.07901        35.38573        -1.57871
C          6.38587        37.52012        -1.94807
C          5.15154        38.18613        -2.20000
C          8.59561         3.50784        -0.90791
C          7.33352         4.18558        -1.23335
C          8.54051         6.38219        -0.62916
C          7.29133         5.71674        -1.03636
C          8.53434         7.78035        -0.39704
C          7.26666         8.47807        -0.14409
C          8.38766        10.68370        -0.59366
C          7.18269         9.94102        -0.17629
C          8.37894        12.16735        -0.40315
C          7.21499        12.73768         0.31622
C          8.56173        14.89206         0.62449
C          7.34138        14.07670         0.84463
C          8.55004        16.25841         0.93528
C          7.27933        16.96281         1.38823
C          8.50750        19.17524         1.37371
C          7.30926        18.37917         0.80805
C          8.57033        20.61031         0.80691
C          7.26959        21.30193         1.11161
C          8.50845        23.52748         1.27490
C          7.23566        22.79058         1.23740
C          8.53087        24.89384         1.07805
C          7.31630        25.64027         0.83356
C          8.57942        27.76645         0.53022
C          7.34035        27.04747         0.60103
C          8.60751        29.17208         0.43863
C          7.36670        29.88885         0.19896
C          8.55346        32.08076         0.49533
C          7.36397        31.27474         0.03267
C          8.61044        33.44983        -0.15093
C          7.49822        34.05296        -0.72340
C          8.73444        36.17541        -1.06148
C          7.56638        35.42536        -1.17366
C          8.79725        37.56232        -1.49706
C          7.57077        38.21814        -1.85695
C         11.05904         3.45514        -0.41138
C          9.76237         4.21063        -0.69907
C         10.97498         6.37486        -0.27852
C          9.73819         5.64865        -0.61182
C         10.97005         7.84888        -0.35853
C          9.76112         8.51153        -0.42432
C         10.99582        10.74264        -0.58512
C          9.72507         9.96955        -0.70668
C         10.96783        12.12465        -0.45111
C          9.71063        12.89593        -0.36893
C         10.97415        14.98420         0.18773
C          9.76095        14.25498         0.21703
C         10.94760        16.36912         0.40737
C          9.74693        17.02870         0.78522
C         10.98507        19.18231         0.96346
C          9.77287        18.44042         1.01395
C         10.96676        20.62552         1.28620
C          9.78456        21.32747         1.33802
C         11.02991        23.51139         1.96448
C          9.72281        22.76790         1.67982
C         11.10073        24.96152         1.52775
C          9.86004        25.55117         0.91655
C         11.10607        27.77876         0.64620
C          9.85360        27.02469         0.55207
C         11.10529        29.17046         0.57706
C          9.85552        29.89272         0.47604
C         11.09306        32.00742         0.48577
C          9.87323        31.31570         0.43217
C         11.10684        33.48984         0.45065
C          9.81851        34.24142         0.08016
C         11.14423        36.24749        -0.61200
C          9.92752        35.58652        -0.51783
C         11.22720        37.60598        -1.10482
C         10.00219        38.24580        -1.48306
C         13.64238         3.55659        -0.52084
C         12.32575         4.22834        -0.88051
C         13.54101         6.45642        -0.39714
C         12.27375         5.64439        -0.34672
C         13.46938         7.82889        -0.99541
C         12.18996         8.56985        -0.79918
C         13.50642        10.68937        -0.59844
C         12.24384        10.03958        -0.67428
C         13.54080        12.09718        -0.14474
C         12.22252        12.82835        -0.13173
C         13.42600        14.97802        -0.20077
C         12.23933        14.30908        -0.11922
C         13.44414        16.40127         0.20955
C         12.15580        17.17542         0.00907
C         13.44306        19.28670         0.63220
C         12.17632        18.54426         0.62592
C         13.46854        20.54778         1.43163
C         12.20669        21.30851         1.55168
C         13.52539        23.17481         2.33163
C         12.25029        22.63514         1.94241
C         13.50595        25.30457         2.10052
C         12.26046        25.72303         1.50720
C         13.61847        27.78118         0.90136
C         12.37553        26.97147         0.62523
C         13.60652        29.18957         0.75341
C         12.35999        29.89324         0.59612
C         13.60217        32.01096         0.58234
C         12.35167        31.30507         0.53506
C         13.60148        33.47882         0.52397
C         12.35842        34.16857         0.18490
C         13.70769        36.23460        -0.54510
C         12.39292        35.50541        -0.37914
C         13.69768        37.69781        -0.79379
C         12.44347        38.29255        -1.16140
C         16.10937         3.57036        -0.30488
C         14.81459         4.23756        -0.33828
C         16.14211         6.47420        -0.45207
C         14.82891         5.73230        -0.26640
C         16.03033         7.88605        -0.98361
C         14.74805         8.60412        -1.32680
C         15.97705        10.76872        -0.95494
C         14.73706        10.04753        -0.85181
C         16.03680        12.19935        -0.81823
C         14.87241        12.88485        -0.11828
C         16.00193        15.07030        -0.52905
C         14.69219        14.30058        -0.70255
C         16.01106        16.42001        -0.08149
C         14.74828        17.10207         0.30659
C         16.02687        19.24463         0.75242
C         14.74667        18.59607         0.38328
C         16.03842        20.62126         1.10326
C         14.78417        21.26386         1.55737
C         16.00673        23.46536         1.99268
C         14.75072        22.68867         1.92103
C         16.01077        25.00926         1.97366
C         14.76008        25.76458         1.72967
C         16.05925        27.81075         1.25325
C         14.81956        27.10536         1.18467
C         16.05349        29.20256         1.09758
C         14.84101        29.90533         0.85794
C         16.08321        32.05887         0.58734
C         14.83050        31.34316         0.71279
C         16.15383        33.42727         0.35977
C         14.91713        34.21754         0.41302
C         16.14904        36.27219        -0.17534
C         14.95637        35.61111        -0.06567
C         16.16407        37.78375        -0.24161
C         14.87817        38.39272        -0.73775
C         18.55694         3.57122        -0.74530
C         17.27148         4.21924        -0.65940
C         18.43714         6.36313        -1.55103
C         17.20380         5.63357        -1.11657
C         18.41946         7.88074        -1.75031
C         17.18248         8.58917        -1.21858
C         18.38381        10.74378        -1.47249
C         17.16693        10.03826        -1.25543
C         18.33959        12.17416        -1.61948
C         17.17325        12.94488        -1.19099
C         18.38231        15.25635        -0.98719
C         17.19148        14.42232        -0.94599
C         18.42462        16.54496        -0.34930
C         17.20771        17.15174         0.07490
C         18.45617        19.24528         0.69833
C         17.22036        18.54328         0.52855
C         18.46544        20.63415         1.05404
C         17.23400        21.32770         1.22606
C         18.50550        23.50603         1.55781
C         17.18988        22.84214         1.24785
C         18.51772        24.93128         1.63038
C         17.28751        25.69069         1.62035
C         18.56740        27.78481         1.37930
C         17.30634        27.07457         1.44658
C         18.59752        29.20263         1.26365
C         17.30815        29.98489         1.41190
C         18.63498        31.98616         0.46823
C         17.33684        31.27637         0.62839
C         18.63254        33.44268         0.19791
C         17.39536        34.13405         0.13424
C         18.61558        36.19796        -0.42294
C         17.40079        35.54124        -0.09996
C         18.58595        37.58058        -0.87707
C         17.39670        38.30232        -0.91601
C         19.70327         4.26026        -1.04449
C         20.86343         6.44021        -1.13155
C         19.72453         5.67883        -1.30620
C         20.84674         7.87078        -1.17898
C         19.69501         8.58832        -1.40199
C         20.79537        10.71916        -1.96306
C         19.63678        10.03283        -1.57980
C         20.70056        12.04864        -2.37436
C         19.49259        12.72878        -2.22714
C         20.72284        15.67134        -1.69806
C         19.53076        14.96187        -1.77270
C         20.80944        16.78596        -0.85896
C         19.65829        17.27248        -0.23090
C         20.88419        19.26576         0.67037
C         19.68644        18.58353         0.41320
C         20.89091        20.59921         1.09398
C         19.70425        21.32738         1.23946
C         20.92597        23.47660         1.66478
C         19.70293        22.76976         1.51710
C         20.95453        24.85580         1.68903
C         19.76321        25.61845         1.61191
C         21.00707        27.77389         1.41764
C         19.78846        27.06002         1.48105
C         21.02185        29.14718         1.25072
C         19.82223        29.88581         1.17301
C         21.09812        32.02604         0.50195
C         19.86743        31.40813         1.13460
C         21.07169        33.28908         0.02002
C         19.85426        34.09075        -0.03266
C         21.04151        36.15754        -0.78684
C         19.85645        35.48196        -0.40562
C         21.00568        37.48340        -1.23627
C         19.80983        38.18132        -1.30752
O         17.50223         5.75317        -2.53161
O         10.12843        23.15623         3.05072
O          6.58940         7.89758         1.08330
O          7.41579         5.12120        -2.36538
O         11.63349         5.77983         0.94936
O         14.23403        34.11902         1.72828
O          1.33469        11.11959         2.57497
O         13.19698        35.47408        -1.69895
O          6.78590        14.26680         2.18399
O          9.97125        25.94449        -0.51266
O          8.83784        12.90267        -1.57532
O         10.27454        34.16972         1.49267
O         12.82800        12.27785         1.12705
O          7.10016        21.87054         2.42266
O         14.22012        20.42963         2.67578
O         13.45012        24.33624         3.10856
O          5.61069        20.95623        -0.71776
O         14.08566        19.33743        -0.70953
O         16.20927        24.21804         3.20678
O         19.44077        14.00709        -2.78502
O         12.54787         7.93506        -2.12609
O         14.09357        16.53970         1.51664
O         18.07936        31.18950        -0.63284
O         14.18144         6.34690         0.91564
O          8.92030        10.26593        -1.89596
O          4.57794        27.36060         2.16394
H          3.73996        26.91498         2.41241
O         15.27853        13.00608         1.25719
H         14.45793        12.98304         1.80459
O          8.30829        32.32627         1.92380
H          8.98960        32.98505         2.21011
O         14.81867         8.70349        -2.78817
H         13.88596         8.69677        -3.11559
O          6.63454        35.61346        -3.34355
H          5.90634        36.00233        -3.87366
O          7.53688        18.17545        -0.61420
H          7.53556        19.06441        -1.04453
O         12.06034        17.34273        -1.45143
H         11.19807        17.76487        -1.65001
O          7.27623        16.97930         2.84368
H          7.19310        16.03787         3.12913
O          3.66593         2.10010        -1.09580
H          3.71736         2.03485        -0.12039
O         16.70567         6.63522         0.89210
H         15.94883         6.83119         1.49323
O         16.89046        23.20127        -0.15425
H         17.60063        22.82791        -0.71870
O          2.21692        13.86996        -0.99854
H          2.18111        14.75051        -1.42897
O         17.20530        30.37063         2.81563
H         17.14551        29.55281         3.35227
O         14.48783        14.11085        -2.13048
H         14.33524        14.98707        -2.54283
O         11.03044         2.17050        -1.03741
H         10.82230         2.30547        -1.98525
O          8.40896        19.35225         2.79315
H          8.20639        18.47920         3.20577
O          1.32941        27.18817        -2.22883
H          1.37381        26.20812        -2.23086
O          2.22864        17.03815         2.53751
H          1.43860        17.56332         2.78848
O         12.56928        26.45826        -0.73634
H         11.68612        26.11573        -1.03097
O         18.29190         8.10465        -3.18856
H         17.60757         7.47144        -3.50821
O         12.29367         4.32292        -2.32981
H         12.62637         3.47871        -2.69912
O         19.82970        31.87018         2.51683
H         20.57305        31.45195         2.99841
O          8.67935        20.58481        -0.64247
H          9.55411        20.20450        -0.87309
O         16.27892        38.22170         1.17326
H         17.09293        37.81285         1.53820
O          4.68313         8.82230        -1.85382
H          3.86109         9.32105        -2.04425
H          1.22450         2.29411        -0.97472
H         -0.86030         3.28714        -0.00096
H         -0.88823         5.62868         0.74502
H         -0.72629         7.23403         1.70067
H         -0.56665         9.47467         2.75017
H         -0.89180        12.42447         2.22730
H         -1.11049        14.69817         1.27981
H         -1.13712        16.53772         0.46788
H         -1.10190        18.95354         0.43499
H         -1.09973        20.87360         0.35480
H         -1.05460        23.29521         0.21551
H         -1.01598        25.26157         0.41343
H         -0.97233        27.58374        -0.31946
H         -0.84546        29.27197        -1.38436
H         -0.83738        31.70472        -1.63187
H         -0.83431        33.62498        -1.65789
H         -0.73244        36.03791        -2.13066
H          0.56302        38.10110        -2.50985
H          3.38955         3.51048        -2.56135
H          2.74330        39.27217        -2.65834
H          5.98929         2.41534        -1.25748
H          5.16025        39.27521        -2.35991
H          8.60180         2.41018        -0.82732
H          7.57882        39.30839        -2.00933
H         11.13998         3.28376         0.69215
H         10.03229        39.29691        -1.80693
H         13.67264         2.45739        -0.59985
H         12.44007        39.34774        -1.47422
H         16.13309         2.49073        -0.09028
H         14.88142        39.47317        -0.95062
H         18.61601         2.49930        -0.50432
H         17.40826        39.34217        -1.27655
H         20.66943         3.73367        -1.01224
H         21.81176         5.93876        -0.88814
H         21.79426         8.39549        -0.98760
H         21.75048        10.18607        -2.05876
H         21.55779        12.56305        -2.82694
H         21.56986        15.37603        -2.32998
H         21.75846        17.33353        -0.79721
H         21.85073        18.76547         0.52322
H         21.86400        21.07831         1.26459
H         21.87798        22.93174         1.70656
H         21.92964        25.35736         1.74333
H         21.96572        27.24498         1.49522
H         21.99163        29.66133         1.20291
H         22.05689        31.48700         0.52215
H         22.00671        33.72859        -0.35674
H         22.00716        35.63573        -0.76052
H         21.94069        37.97095        -1.54641
H         19.79329        39.21865        -1.67111
