         334
 CSIRO Nanostructure Databank - Neutral Graphene Oxide Data Set
C         30.28207        57.19463        -0.28221
C         30.26720        58.56980        -0.20941
C         29.11551        59.33966        -0.59224
C         30.42693        61.40473        -0.51850
C         29.19312        60.70261        -0.72138
C         32.79663        52.94241        -0.08229
C         32.78091        54.32731        -0.08534
C         31.53647        55.06453        -0.09352
C         32.76973        57.23380        -0.29646
C         31.49849        56.43541        -0.14049
C         32.73019        58.56210         0.44025
C         31.40334        59.33039         0.44555
C         32.82148        61.42673         0.04759
C         31.54696        60.75488        -0.05999
C         35.22563        48.64546        -0.01413
C         35.24137        50.04667         0.03772
C         34.03117        50.79647        -0.05425
C         35.26707        52.91453        -0.02315
C         34.02352        52.19774        -0.05120
C         35.27435        54.34017        -0.04567
C         34.03344        55.06364        -0.06926
C         35.26614        57.18478         0.01682
C         34.03895        56.46210        -0.05177
C         35.29291        58.60296         0.20433
C         34.02026        59.31475         0.50694
C         35.31712        61.51116         0.18647
C         33.99242        60.78789         0.33865
C         37.76598        44.31313        -0.07273
C         37.72382        45.72621        -0.00934
C         36.50483        46.42218        -0.05044
C         37.75614        48.61539         0.37598
C         36.41408        47.84539         0.25137
C         37.73648        50.08071         0.16548
C         36.49434        50.77192         0.10024
C         37.73680        52.90452        -0.00455
C         36.49661        52.19250         0.02580
C         37.74588        54.32665        -0.08514
C         36.50308        55.04974        -0.08205
C         37.72005        57.21428        -0.11731
C         36.50219        56.47957        -0.05647
C         37.73784        58.60467         0.09673
C         36.50110        59.28562         0.32282
C         37.79271        61.41542         0.71358
C         36.46899        60.71430         0.82742
C         40.28104        40.06035         0.49815
C         40.25191        41.53786         0.74776
C         39.00205        42.21647         0.27626
C         40.24575        44.32229         0.00024
C         38.98893        43.59218         0.05471
C         40.21674        45.75986        -0.13698
C         38.98414        46.45737         0.01007
C         40.21017        48.57499        -0.01172
C         39.00110        47.86932         0.08466
C         40.22991        50.02240         0.41229
C         38.95250        50.77076         0.12241
C         40.20670        52.91382        -0.01122
C         38.97226        52.19490         0.03809
C         40.20142        54.31758        -0.16714
C         38.98074        55.01529        -0.20076
C         40.26303        57.26109        -0.37506
C         38.96620        56.48099        -0.40509
C         40.20331        58.69551        -0.04125
C         39.00178        59.33407         0.14976
C         40.23441        61.46392         0.61209
C         38.97885        60.76840         0.47424
C         42.71502        35.80683         0.65642
C         42.67905        37.21567         0.60939
C         41.49906        37.92855         0.41879
C         42.73754        40.08995         0.36959
C         41.46806        39.36936         0.44996
C         42.72848        41.51849         0.18775
C         41.50892        42.24275         0.29753
C         42.76480        44.43599         0.08987
C         41.47320        43.63726         0.09657
C         42.62439        45.66356        -0.82707
C         41.41580        46.47804        -0.37166
C         42.67795        48.61558        -0.31808
C         41.42237        47.88442        -0.27902
C         42.68683        50.04243        -0.14626
C         41.46852        50.76121        -0.00189
C         42.68761        52.87425         0.00830
C         41.46278        52.16877        -0.00901
C         42.63357        54.34076         0.32942
C         41.51564        55.04351        -0.43640
C         42.67850        57.19707         0.19940
C         41.51763        56.52856        -0.11710
C         42.72165        58.65509         0.27353
C         41.50684        59.45093        -0.15803
C         42.69284        61.48774         0.69430
C         41.46053        60.83422         0.45016
C         45.16371        32.98833         1.05416
C         43.94916        33.68524         0.94949
C         45.18783        35.80264         0.80275
C         43.92976        35.09033         0.83080
C         45.20566        37.20298         0.67450
C         43.94050        37.97493         0.95890
C         45.18247        40.00859         0.13020
C         43.94773        39.38564         0.43032
C         45.17316        41.39362        -0.47406
C         43.94359        42.19693        -0.11632
C         45.20505        44.28056        -0.42898
C         43.98447        43.59680        -0.24042
C         45.19402        45.72744        -0.48954
C         43.94577        46.48060        -0.95035
C         45.11019        48.62113        -0.36859
C         43.89533        47.91844        -0.45350
C         45.15137        50.03484        -0.21530
C         43.91738        50.75518        -0.15252
C         45.14238        52.90043         0.13117
C         43.91980        52.18487        -0.01011
C         45.16020        54.32492         0.20429
C         43.95024        55.05478         0.21285
C         45.15992        57.15648         0.46594
C         43.94584        56.46309         0.32086
C         45.17736        58.61364         0.84591
C         43.88544        59.33040         0.53249
C         45.15712        61.45295         0.78247
C         43.91831        60.78825         0.64026
C         46.38039        33.65321         1.01064
C         47.64193        35.77300         0.79559
C         46.42719        35.07226         0.86051
C         47.67795        37.17419         0.55187
C         46.41926        37.89369         0.46112
C         47.65015        39.98018        -0.17360
C         46.39211        39.29486         0.17977
C         47.66862        41.45827        -0.08892
C         46.45359        42.14937        -0.20026
C         47.68799        44.25256        -0.08754
C         46.46076        43.56089        -0.26807
C         47.70298        45.71636        -0.44839
C         46.36767        46.41622        -0.33640
C         47.62420        48.57690        -0.64558
C         46.39200        47.89527        -0.05608
C         47.63495        50.05784        -0.35429
C         46.39836        50.72172        -0.13307
C         47.59530        52.93068        -0.25385
C         46.43198        52.15328         0.32402
C         47.64705        54.37401         0.08047
C         46.40261        55.05260         0.24556
C         47.64842        57.18011         0.39427
C         46.39451        56.46245         0.38323
C         47.66305        58.59846         0.42518
C         46.36293        59.34061         0.20327
C         47.62377        61.43655         0.75263
C         46.40280        60.78811         0.63922
C         48.89947        37.86149         0.49476
C         50.19040        40.05790         0.20311
C         48.97377        39.24228         0.04046
C         50.15817        41.43024         0.16954
C         48.88639        42.15093         0.11501
C         50.14840        44.26270         0.70034
C         48.88217        43.56281         0.19884
C         50.09138        45.73626         0.36602
C         48.77545        46.46699         0.31061
C         50.07491        48.57037        -0.23741
C         48.89878        47.90461        -0.16261
C         50.12201        49.98663        -0.76394
C         48.84812        50.72511        -0.44683
C         50.14622        52.89469        -0.32015
C         48.88479        52.18988        -0.50141
C         50.14874        54.39593        -0.34695
C         48.85258        55.05496         0.08061
C         50.12348        57.17013         0.35722
C         48.87405        56.47023         0.28609
C         50.11009        58.56207         0.53819
C         48.88148        59.28242         0.50904
C         50.07439        61.43544         0.53654
C         48.88653        60.75192         0.59997
C         51.38496        42.20824         0.06828
C         52.71357        44.24377        -0.12654
C         51.43960        43.57110         0.19150
C         53.09669        45.47303         0.34025
C         51.17693        46.51820         0.52856
C         52.64270        48.51318         0.12195
C         51.36273        47.78338        -0.23827
C         52.59427        50.01562         0.05562
C         51.34967        50.74136        -0.28903
C         52.55527        52.84951         0.22990
C         51.34031        52.15119        -0.18295
C         52.41612        54.14881         0.75257
C         51.32799        55.01609         0.37974
C         52.62775        57.18064         0.35856
C         51.37604        56.41995         0.39283
C         52.64356        58.57144         0.60170
C         51.36457        59.31583         0.91803
C         52.58218        61.51581         0.84722
C         51.38473        60.72752         0.29706
C         54.13588        46.42150        -0.06274
C         55.06580        48.61872        -0.67523
C         53.95110        47.77843        -0.08744
C         55.08037        50.08118        -0.29129
C         53.86079        50.77840        -0.06451
C         55.06882        52.90944        -0.12164
C         53.83882        52.17982         0.06023
C         55.12430        54.33509        -0.21719
C         53.98531        55.20519        -0.67321
C         55.06776        57.21511         0.20051
C         53.85780        56.53936         0.01398
C         55.09511        58.61712         0.41857
C         53.85773        59.30959         0.55356
C         55.06166        61.43734         0.51216
C         53.87696        60.75375         0.64193
C         56.28246        50.77384        -0.28152
C         57.54426        52.90053        -0.18610
C         56.31354        52.19692        -0.16509
C         57.59133        54.30308        -0.06913
C         56.33656        55.00045        -0.04867
C         57.63120        57.18996         0.27696
C         56.32369        56.44334         0.24747
C         57.57054        58.65620         0.14814
C         56.34165        59.33446         0.33198
C         57.51572        61.47048         0.10663
C         56.32058        60.76613         0.32055
C         58.81517        55.04935        -0.14601
C         60.00891        57.21841        -0.37383
C         58.85728        56.45362        -0.10393
C         59.99028        58.64244        -0.35808
C         58.76023        59.36106        -0.11336
C         59.95124        61.49214        -0.38445
C         58.73632        60.79411        -0.13227
C         61.15914        59.39152        -0.61177
C         61.12950        60.79338        -0.61771
O         52.24297        46.04162         1.30483
O         48.35331        39.41979        -1.31522
O         33.40400        58.67917         1.71833
O         53.37207        54.95023        -1.69836
O         37.06512        48.18449         1.55993
O         39.63004        56.89778        -1.66822
O         52.51071        49.24359         1.37792
O         57.03046        56.70528         1.52645
O         51.37765        47.45154        -1.75025
O         47.98636        52.68853        -1.61849
O         53.31077        54.56193         1.69678
H         53.10633        55.47355         1.98836
O         52.57247        46.76740        -2.16869
H         53.21164        47.49721        -2.39696
O         30.98579        59.46122         1.83652
H         31.81399        59.43402         2.37402
O         41.68567        59.65644        -1.60233
H         40.89630        60.13587        -1.93186
O         32.81583        57.63905        -1.71127
H         32.76606        56.82485        -2.25566
O         50.29818        54.77277        -1.76112
H         49.65058        54.23267        -2.26708
O         50.15794        44.08889         2.14619
H         50.93926        44.58363         2.47821
O         36.14201        60.66662         2.24960
H         36.80574        60.09961         2.69452
O         45.11145        41.18000        -1.92961
H         45.03996        42.06221        -2.35199
O         48.35433        46.45896         1.70175
H         49.02242        46.94113         2.23202
O         51.30770        59.52467         2.36189
H         51.09025        58.66861         2.78577
O         50.18354        49.86959        -2.23843
H         50.74163        49.07989        -2.44640
O         43.91972        38.11755         2.42848
H         43.85524        37.21412         2.80559
O         47.56746        48.43456        -2.08598
H         48.35618        48.90497        -2.45091
O         46.49402        48.07317         1.39526
H         45.98189        47.35811         1.82849
O         46.70555        52.12942         1.77817
H         46.11223        51.45859         2.17860
O         40.23628        41.68943         2.23758
H         40.07422        42.63910         2.42609
O         46.11816        59.32627        -1.22952
H         46.81172        59.86423        -1.66420
O         48.08252        45.76556        -1.85532
H         47.38189        45.32187        -2.37711
O         54.85996        48.56265        -2.11723
H         55.41301        49.25855        -2.53161
O         42.24086        54.43875         1.74131
H         42.88707        53.92298         2.26823
O         51.59046        60.62335        -1.13526
H         50.83065        60.13626        -1.51792
O         35.58133        61.71783        -1.20955
H         35.60616        60.84412        -1.65207
O         41.77165        54.93207        -1.85661
H         41.12341        55.52263        -2.30637
O         45.39174        58.67288         2.28634
H         44.64160        58.21862         2.72342
O         40.31314        49.97607         1.89122
H         39.51572        49.50178         2.21350
O         52.63872        62.79034         0.20574
H         52.55005        62.62136        -0.75701
O         42.96373        44.94676         1.43994
H         43.08527        44.17995         2.03854
O         42.26940        45.12484        -2.11657
H         42.64214        45.72441        -2.80217
O         44.18095        46.65435        -2.39062
H         44.97886        47.21771        -2.49846
H         29.35904        56.65674        -0.55321
H         28.18802        58.80974        -0.85706
H         30.47889        62.47269        -0.77922
H         28.31438        61.27124        -1.05759
H         31.84514        52.38957        -0.09279
H         30.59586        54.49441        -0.04693
H         32.84871        62.50237        -0.19050
H         34.29030        48.12636        -0.27106
H         33.07517        50.25343        -0.09620
H         35.25968        62.52202         0.66023
H         36.81988        43.75166        -0.08217
H         35.58122        45.87605        -0.29420
H         37.81300        62.48392         0.97905
H         39.32742        39.51057         0.51248
H         38.04912        41.67063         0.35123
H         40.20665        62.51319         0.94507
H         41.77881        35.24167         0.52943
H         40.54878        37.38496         0.30054
H         42.69246        62.55762         0.95449
H         45.14653        31.89408         1.15801
H         42.99893        33.13249         0.95927
H         45.15504        62.53828         0.97071
H         47.32269        33.09089         1.07660
H         48.59044        35.22212         0.88032
H         47.64573        62.51631         0.96799
H         49.82728        37.34043         0.77663
H         51.15556        39.53549         0.29185
H         50.07921        62.53589         0.56924
H         52.30345        41.65215        -0.17985
H         53.37195        43.71564        -0.83421
H         52.43150        61.69307         1.94326
H         55.10511        46.02579        -0.41101
H         56.06483        48.15442        -0.44094
H         55.04608        62.53751         0.53226
H         57.23108        50.22733        -0.39812
H         58.48160        52.33065        -0.27339
H         57.50229        62.57069         0.10299
H         59.74873        54.49596        -0.33030
H         60.95176        56.70528        -0.61705
H         59.94811        62.59147        -0.39605
H         62.10501        58.86493        -0.80428
H         62.05824        61.34801        -0.81374
