         204
 CSIRO Nanostructure Databank - Neutral Graphene Oxide Data Set
C        -10.93806         0.73326        -1.01691
C         -9.71632         1.49677        -0.81898
C         -8.51136         0.76337        -0.51286
C         -7.29867         1.47055        -0.25767
C         -6.13969         0.77404         0.18560
C         -4.93206         1.44446         0.44015
C         -3.74257         0.68359         0.77779
C         -2.48864         1.40348         1.22848
C         -1.23399         0.66884         0.79488
C         -0.01471         1.35761         0.66809
C          1.17516         0.66670         0.30407
C          2.38533         1.40268        -0.00927
C          3.49182         0.70216        -0.79823
C          4.82573         1.39612        -0.63737
C          6.02300         0.72538        -0.49365
C          7.28620         1.45752        -0.45558
C          8.51773         0.74703        -0.31279
C          9.76406         1.48166        -0.23614
C         11.00009         0.74108        -0.12794
C         -9.68492         2.87059        -0.94474
C         -8.39733         3.63816        -0.99705
C         -7.21571         2.88160        -0.44120
C         -6.02583         3.56186        -0.16729
C         -4.87282         2.86665         0.28706
C         -3.64394         3.57561         0.54996
C         -2.45891         2.86988         0.86691
C         -1.23780         3.55783         0.96757
C          0.02411         2.78739         1.01611
C          1.32972         3.52594         0.77760
C          2.45433         2.79177         0.15082
C          3.60047         3.55815        -0.23753
C          4.78406         2.87762        -0.88926
C          6.07541         3.59502        -0.61467
C          7.29485         2.86910        -0.54254
C          8.55000         3.60836        -0.44920
C          9.76535         2.86507        -0.26883
C         -8.46246         4.99598        -0.36437
C         -7.28449         5.73060        -0.20703
C         -5.95795         5.03715        -0.49909
C         -4.78768         5.74829         0.13945
C         -3.61711         5.00888         0.51412
C         -2.42490         5.69330         0.87118
C         -1.20467         4.97668         0.96198
C          0.05930         5.68759         0.91508
C          1.27775         4.99517         0.66835
C          2.46731         5.68189         0.33369
C          3.63989         4.95419        -0.08750
C          4.84376         5.70679        -0.36337
C          6.05460         4.99448        -0.61539
C          7.31550         5.70602        -1.02081
C          8.55523         4.98260        -0.57499
C         -7.27168         7.10878         0.01385
C         -6.01986         7.88081        -0.32063
C         -4.79995         7.13993         0.18603
C         -3.66585         7.86613         0.63862
C         -2.46795         7.15013         1.06838
C         -1.10817         7.95655         1.17487
C          0.10084         7.10418         1.02053
C          1.36484         7.70463         0.99441
C          2.51844         7.10193         0.44839
C          3.67916         7.86655         0.05164
C          4.85080         7.13333        -0.29282
C          6.09986         7.84137        -0.55764
C          7.28090         7.17771        -0.76591
C         -6.05209         9.32237         0.11097
C         -4.93240         9.97600         0.47737
C         -3.65916         9.28130         0.63018
C         -2.43841         9.97947         0.62066
C         -1.17078         9.36293         0.69531
C         -0.06339        10.08181         0.12897
C          1.26771         9.78004         0.40525
C          2.47839        10.10070        -0.26033
C          3.63915         9.30008        -0.19110
C          4.87707         9.95095        -0.56421
C          6.05880         9.28569        -0.63310
C        -10.94540        -0.62996        -1.04690
C         -9.74398        -1.40597        -0.84365
C         -8.52152        -0.67133        -0.53038
C         -7.37718        -1.38219        -0.19990
C         -6.23784        -0.67654         0.38496
C         -4.98857        -1.45430         0.71715
C         -3.74194        -0.68552         0.81627
C         -2.50402        -1.42847         1.26720
C         -1.25143        -0.72993         0.79788
C         -0.05078        -1.45265         0.61217
C          1.12228        -0.75361         0.24543
C          2.32571        -1.53425        -0.10057
C          3.56412        -0.80740        -0.55518
C          4.85737        -1.46992        -0.30193
C          6.06000        -0.72582        -0.34164
C          7.30407        -1.40306        -0.23193
C          8.53513        -0.66430        -0.23799
C          9.78286        -1.37790        -0.15375
C         11.01158        -0.61952        -0.10553
C         -9.74306        -2.79402        -0.82687
C         -8.54406        -3.56262        -0.63217
C         -7.23337        -2.81455        -0.62197
C         -6.06952        -3.56736        -0.02095
C         -4.93559        -2.90909         0.42987
C         -3.69244        -3.60576         0.64676
C         -2.50860        -2.90271         0.92749
C         -1.24822        -3.58598         0.98615
C         -0.04644        -2.88447         0.86097
C          1.26637        -3.55179         0.98054
C          2.45420        -2.89834         0.42484
C          3.65840        -3.58331         0.27827
C          4.87252        -2.86260        -0.04947
C          6.12065        -3.55592        -0.03376
C          7.33323        -2.82509        -0.13791
C          8.58845        -3.52805        -0.12388
C          9.79757        -2.76914        -0.12594
C         -8.51807        -4.94009        -0.62982
C         -7.28977        -5.68387        -0.46528
C         -6.07813        -4.99502        -0.14972
C         -4.87706        -5.72229         0.07456
C         -3.67014        -5.03838         0.42618
C         -2.48481        -5.77195         0.61805
C         -1.27661        -5.06815         1.08863
C          0.02988        -5.84659         1.10837
C          1.31683        -5.08988         1.09127
C          2.52739        -5.76676         0.61535
C          3.70624        -5.02516         0.40958
C          4.93722        -5.71608         0.17810
C          6.15063        -4.98383         0.04038
C          7.39576        -5.68020        -0.05635
C          8.59918        -4.93298        -0.11009
C         -7.27099        -7.08791        -0.57462
C         -6.08182        -7.82113        -0.40980
C         -4.86642        -7.13980        -0.07966
C         -3.64847        -7.86323         0.06144
C         -2.44661        -7.18046         0.40268
C         -1.19897        -7.90322         0.40670
C          0.03037        -7.23824         0.61241
C          1.26375        -7.90168         0.40054
C          2.50688        -7.17923         0.41203
C          3.72745        -7.86255         0.17078
C          4.95046        -7.13665         0.11495
C          6.19865        -7.82768        -0.05578
C          7.39098        -7.10388        -0.10203
C         -6.04732        -9.24953        -0.57298
C         -4.87649        -9.94705        -0.46442
C         -3.63252        -9.28365        -0.16970
C         -2.42282        -9.97885        -0.14152
C         -1.18919        -9.30730         0.08928
C          0.04191        -9.99049         0.00001
C          1.26970        -9.30983         0.11604
C          2.51874        -9.98308        -0.04520
C          3.72615        -9.29167        -0.01109
C          4.99649        -9.95958        -0.17334
C          6.17149        -9.26666        -0.17762
O          1.51599        -4.24187         2.25103
O         -8.11532         3.86267        -2.46260
H         -8.10931         2.97879        -2.88981
O          2.72560        -1.50936        -1.54579
O          1.46866         8.97851         1.54834
O         -2.49226        -1.32070         2.71909
H         -2.49876        -0.33117         2.92729
O          7.34549         5.59756        -2.51062
H          6.99369         4.70872        -2.73998
O         -5.75076         5.14026        -1.95121
H         -6.55515         4.72831        -2.37278
O          3.10179         0.88203        -2.20197
H          2.67568         0.02860        -2.47239
O          4.61163         3.06286        -2.34629
H          3.95848         2.37834        -2.64105
O         -2.49660         1.36109         2.66044
O         -0.73962        -5.64676         2.33010
O         -5.95479         7.89937        -1.78774
H         -5.83577         6.95534        -2.07826
O         -6.85444        -2.69420        -2.05896
H         -7.65874        -2.41160        -2.54577
O         -1.91423         7.64201         2.33125
O         -5.95715        -1.13114         1.77697
O          0.94376         3.06507         2.11918
H         11.96214        -1.16827        -0.03536
H         11.94204         1.30669        -0.07670
H         10.71694         3.41352        -0.20389
H          9.51089         5.52860        -0.55622
H          8.20077         7.75413        -0.94967
H          6.99332         9.82510        -0.84484
H          4.85240        11.03982        -0.71874
H          2.53925        11.03486        -0.84127
H         -0.29181        10.89394        -0.57857
H         -2.47046        11.05886         0.40649
H         -4.95885        11.05547         0.69048
H         -7.00299         9.86568         0.00373
H         -8.22371         7.64730         0.14618
H         -9.43878         5.45308        -0.14413
H        -10.60986         3.41267        -1.19453
H        -11.87161         1.29034        -1.18528
H        -11.88733        -1.16882        -1.22874
H        -10.69411        -3.33396        -0.95564
H         -9.45509        -5.50434        -0.75883
H         -8.20329        -7.62196        -0.81291
H         -6.98488        -9.77481        -0.80761
H         -4.86552       -11.03673        -0.61405
H         -2.41163       -11.05989        -0.34641
H          0.04262       -11.06991        -0.21331
H          2.51780       -11.06969        -0.21879
H          4.99942       -11.05350        -0.28938
H          7.12675        -9.79887        -0.29751
H          8.34766        -7.63771        -0.20498
H          9.56166        -5.46532        -0.13986
H         10.76016        -3.30082        -0.08652
