         404
 CSIRO Nanostructure Databank - Neutral Graphene Oxide Data Set
C          1.29224         1.98714        -0.69792
C          1.27186         3.39503        -0.60642
C          2.49256         1.30860        -0.72686
C          2.44979         4.12933        -0.49997
C          1.25852         6.26810         0.21589
C          1.27466         7.56897         0.57497
C          2.39303         5.64319        -0.56272
C          2.46311         8.40081         0.42118
C          1.29906        10.50966         1.10709
C          1.28715        11.86560         1.21288
C          2.47706         9.76033         0.72043
C          2.43643        12.70129         0.79186
C          1.32173        14.87706         1.35414
C          1.34501        16.24550         1.59634
C          2.49985        14.16050         1.07673
C          2.56407        16.95198         1.58018
C          2.60537        18.36565         1.82454
C          3.72323         2.02163        -0.64232
C          3.69912         3.44979        -0.50502
C          4.95546         1.33589        -0.73565
C          4.94362         4.15792        -0.36949
C          3.70214         6.34238        -0.27019
C          3.67481         7.70801         0.00239
C          4.95184         5.61585        -0.30991
C          4.88887         8.50017        -0.21018
C          3.78180        10.50668         0.90662
C          3.72626        11.98067         0.54875
C          4.97847         9.86839         0.26317
C          5.01776        12.71868         0.60011
C          3.74746        14.83982         1.05182
C          3.77531        16.24494         1.31544
C          5.00002        14.15477         0.78665
C          5.01104        16.96387         1.32207
C          3.78876        19.05200         1.80497
C          5.02488        18.37050         1.55242
C          6.17965         2.02284        -0.61870
C          6.14717         3.43728        -0.36658
C          7.42944         1.35109        -0.72174
C          7.41819         4.09001        -0.03058
C          6.16885         6.29852        -0.22328
C          6.23109         7.74212        -0.41178
C          7.42523         5.61339         0.09283
C          7.47384         8.46870        -0.10753
C          6.18691        10.55658         0.26049
C          6.19567        12.00069         0.47728
C          7.43366         9.84929         0.10979
C          7.48042        12.71109         0.34270
C          6.20516        14.87596         0.81243
C          6.23901        16.27781         1.09553
C          7.48413        14.21688         0.49861
C          7.47285        16.99154         1.09657
C          6.25271        19.06459         1.49839
C          7.45580        18.39739         1.26589
C          8.67034         2.02979        -0.63017
C          8.68978         3.42462        -0.32519
C          9.91029         1.35213        -0.81073
C          9.90987         4.14858        -0.26667
C          8.70761         6.32709        -0.08308
C          8.70013         7.71886        -0.10299
C          9.93279         5.57911        -0.13581
C          9.98747         8.47523        -0.28002
C          8.67315        10.53331         0.55690
C          8.73699        11.99576         0.60378
C          9.97368         9.78536         0.46337
C          9.94056        12.66431         0.82108
C          8.75518        14.88113         0.85044
C          8.73986        16.27753         1.01806
C          9.97026        14.13029         0.94577
C          9.97288        16.98674         1.13940
C          8.71639        19.21460         1.11320
C          9.99388        18.41485         1.21282
C         11.13157         2.02227        -0.68115
C         11.14391         3.43826        -0.40353
C         12.37217         1.33750        -0.90824
C         12.37343         4.13424        -0.26692
C         11.19062         6.26739        -0.07311
C         11.22965         7.68535         0.02170
C         12.40582         5.51663        -0.07443
C         12.44981         8.40462         0.14891
C         11.22761        10.55101         0.49604
C         11.17583        11.91098         0.82584
C         12.45274         9.83686         0.33236
C         12.44199        12.56878         1.14664
C         11.17607        14.82206         1.17333
C         11.20424        16.25712         1.19904
C         12.44862        14.08811         1.37633
C         12.42793        16.96950         1.30027
C         11.19596        19.08765         1.30600
C         12.43910        18.38359         1.33399
C         13.60114         1.97639        -0.82387
C         13.68048         3.37798        -0.26015
C         14.81788         1.31531        -1.12668
C         14.74821         4.20508        -0.95891
C         13.72586         6.21332         0.19508
C         13.68946         7.71178         0.05903
C         14.88081         5.60981        -0.57045
C         14.90752         8.41084        -0.07461
C         13.69718        10.53805         0.44445
C         13.69440        11.89089         0.81238
C         14.93608         9.83708         0.15535
C         14.94211        12.64935         0.94313
C         13.71468        14.80197         1.16249
C         13.73094        16.25453         1.54106
C         14.90388        14.13516         0.91850
C         14.93924        16.99421         1.03693
C         13.67454        19.09132         1.35168
C         14.90953        18.43541         1.13436
C         16.03461         2.00764        -1.30126
C         15.98645         3.48562        -1.44552
C         17.26948         1.35259        -1.38074
C         17.22634         4.26365        -1.53727
C         16.05625         6.31602        -0.79619
C         16.11314         7.72483        -0.44590
C         17.25084         5.63518        -1.30403
C         17.33747         8.43460        -0.55887
C         16.14695        10.52727         0.09349
C         16.22507        11.94256         0.51133
C         17.35996         9.86692        -0.29463
C         17.33722        12.77221         0.02796
C         16.10652        14.86433         0.60046
C         16.09293        16.31518         0.65532
C         17.25076        14.17832         0.10737
C         17.28703        17.08129         0.30769
C         16.10971        19.15671         0.98906
C         17.30280        18.51879         0.56207
C         18.48760         2.05237        -1.59625
C         18.44241         3.50781        -1.88331
C         19.71916         1.41008        -1.52714
C         19.75281         4.27079        -1.95150
C         18.50456         6.37765        -1.38083
C         18.51112         7.74337        -0.97413
C         19.73425         5.72215        -1.69016
C         19.79699         8.44852        -0.94856
C         18.52209        10.63914        -0.46212
C         18.52084        12.08290        -0.40866
C         19.79452         9.95607        -0.71803
C         19.71365        12.80135        -0.64381
C         18.37372        14.98528        -0.40547
C         18.41950        16.43976        -0.15928
C         19.66152        14.27062        -0.72692
C         19.61552        17.18857        -0.59837
C         18.48972        19.24437         0.41904
C         19.63527        18.70601        -0.29224
C         20.96928         2.11547        -1.52742
C         20.99949         3.53578        -1.69037
C         22.16754         1.42859        -1.24932
C         22.20331         4.25682        -1.56459
C         20.98348         6.40983        -1.79733
C         20.92861         7.85981        -1.70306
C         22.22264         5.68777        -1.79464
C         21.86741         8.70585        -2.24777
C         20.91728        10.74392        -1.23975
C         20.92372        12.14938        -1.06150
C         21.95911        10.11907        -1.95324
C         22.12163        12.87234        -1.31803
C         20.93572        15.03813        -0.61374
C         20.91948        16.50874        -0.72651
C         22.20376        14.29007        -0.92880
C         22.12954        17.21408        -0.83359
C         20.96109        19.44060        -0.18775
C         22.17569        18.65353        -0.63955
C         23.38496         2.12269        -1.06668
C         23.40303         3.54999        -1.22390
C         24.57936         1.43969        -0.70402
C         24.61099         4.25604        -0.98168
C         23.51788         6.33706        -1.76570
C         23.75398         7.62229        -2.28453
C         24.66295         5.66618        -1.20232
C         24.88069         8.40545        -1.90611
C         23.08131        10.90049        -2.31435
C         23.26042        12.21611        -1.84715
C         24.97937         9.80211        -2.15632
C         24.59286        12.82495        -1.77230
C         23.35067        15.08483        -1.44490
C         23.37347        16.53741        -1.13031
C         24.59224        14.32438        -1.82634
C         24.58130        17.23508        -1.23384
C         23.36810        19.32654        -0.72239
C         24.61673        18.66324        -0.99193
C         25.78463         2.12164        -0.47658
C         25.79832         3.56347        -0.60670
C         26.97733         1.43938        -0.08756
C         26.99340         4.28447        -0.40104
C         25.84625         6.38486        -0.90359
C         25.89742         7.79927        -1.12333
C         27.01874         5.70089        -0.43766
C         26.96306         8.59366        -0.63279
C         25.88319        10.63890        -1.48151
C         25.75476        12.09712        -1.52752
C         26.95743         9.99597        -0.75534
C         26.93216        12.84073        -1.00619
C         25.91005        15.07728        -1.87334
C         25.83436        16.55172        -1.45624
C         26.95701        14.33079        -1.06750
C         27.01957        17.25137        -1.33846
C         25.81710        19.36456        -0.99621
C         27.07337        18.69265        -1.16179
C         28.19810         2.10831         0.08075
C         28.24863         3.55408        -0.22260
C         29.38070         1.47307         0.51090
C         29.48335         4.35594         0.17296
C         28.15529         6.44235         0.02196
C         28.01058         7.91200         0.15340
C         29.35052         5.80775         0.41362
C         29.20338         8.71940         0.60353
C         28.14727        10.75472        -0.36290
C         28.18015        12.11386        -0.69153
C         29.32161        10.11427         0.15379
C         29.47166        12.78718        -0.79140
C         28.26615        15.04602        -0.91921
C         28.29006        16.51979        -1.12613
C         29.53332        14.28207        -1.07476
C         29.58642        17.16934        -1.44367
C         28.29463        19.36348        -1.12481
C         29.58734        18.70656        -1.38911
C         30.55681         2.18512         0.86451
C         30.58742         3.63287         0.81319
C         31.70667         1.49311         1.30842
C         31.64963         4.36765         1.32381
C         30.47467         6.50727         0.95154
C         30.42148         7.98693         1.07894
C         31.66308         5.81349         1.29336
C         31.70344         8.76075         1.20780
C         30.57363        10.81958         0.26659
C         30.64560        12.14600        -0.21019
C         31.79233        10.15096         0.69743
C         31.84597        12.95259        -0.00817
C         30.77998        15.03656        -0.85562
C         30.81404        16.43649        -1.08181
C         31.95625        14.32904        -0.53775
C         32.03463        17.13032        -1.00704
C         30.87340        19.32790        -1.10785
C         32.06683        18.58213        -1.08303
C         32.85884         2.17694         1.75682
C         32.78442         3.64436         1.91052
C         34.05490         1.51969         2.05139
C         34.10839         4.41952         2.05474
C         32.91456         6.51403         1.49524
C         32.96673         7.98880         1.43642
C         34.12837         5.83378         1.65014
C         34.29625         8.66379         1.15371
C         33.05740        10.74833         0.52961
C         33.14137        12.20538         0.32723
C         34.30030        10.04490         0.62974
C         34.41250        12.83536        -0.05280
C         33.20847        14.97605        -0.56315
C         33.24633        16.39018        -0.82311
C         34.43305        14.21791        -0.38738
C         34.48290        17.05973        -0.93909
C         33.33336        19.22284        -1.03000
C         34.53742        18.48739        -1.01899
C         35.30040         2.21017         2.23679
C         35.34869         3.64819         2.08794
C         36.48490         1.47272         2.32965
C         36.55712         4.31793         1.82130
C         35.40452         6.45052         1.34450
C         35.48244         7.82250         0.99639
C         36.58938         5.65570         1.36408
C         36.73131         8.46068         0.67888
C         35.53994        10.65474         0.32638
C         35.59863        12.06290        -0.03939
C         36.76017         9.89381         0.39302
C         36.85174        12.70164        -0.29132
C         35.68187        14.83248        -0.67067
C         35.69876        16.25476        -1.07528
C         36.87757        14.09147        -0.61496
C         37.03713        17.00698        -1.07288
C         35.80208        19.15788        -0.95833
C         37.01063        18.46851        -0.87684
C         37.77053         2.13355         2.50563
C         37.81442         3.63947         2.17364
C         39.04455         1.40266         2.40866
C         39.10020         4.24035         1.79753
C         37.86214         6.19115         0.74359
C         37.89881         7.69965         0.66339
C         39.13940         5.55395         1.28350
C         39.17437         8.33599         0.33109
C         38.00542        10.54463         0.19797
C         38.07392        11.95360        -0.10651
C         39.23311         9.80728         0.28981
C         39.33004        12.59390        -0.13383
C         38.17132        14.77915        -0.85248
C         38.24418        16.25091        -0.74111
C         39.45224        14.00776        -0.53732
C         39.43110        16.92197        -0.47386
C         38.24830        19.10613        -0.61341
C         39.43477        18.37837        -0.44107
C         40.21791         2.06960         2.28476
C         40.28560         3.49632         2.01637
C         41.52640         4.12924         1.81116
C         40.39370         6.16780         1.10096
C         40.47485         7.55435         0.56362
C         41.57297         5.45414         1.40002
C         41.66842         8.36155         0.81798
C         40.47279        10.45912         0.34490
C         40.52447        11.89799         0.21189
C         41.66752         9.70843         0.64258
C         41.71579        12.63232         0.40387
C         40.65706        14.76490        -0.14802
C         40.66693        16.20401        -0.21829
C         41.75400        14.02484         0.30846
C         41.83964        16.94448        -0.00742
C         40.66217        19.05840        -0.20167
C         41.83451        18.35116        -0.00635
O         26.49863        13.72070         0.15844
O         15.89421        12.13198         1.93617
O         36.42194        16.53434        -2.31998
O          5.48202         8.27392        -1.53616
O         30.82720         8.54775         2.37263
O         33.22431         4.14621         3.19786
O         24.10643        10.35655        -3.10773
O         20.17665         9.00749         0.35683
O         39.90576         7.67487        -0.78796
O         12.45255        13.16714         2.50981
O         28.07941         8.44896         1.52196
O         23.65688        14.80126        -2.85950
O          9.26292         9.82500         1.72887
O         32.38630        12.91529         1.36222
O         38.99938        14.23309        -1.92479
O         28.31669        15.93324         0.23915
O         29.60487        17.91337        -2.67098
O         33.74155         8.57670         2.52764
O         37.78629         3.16304         3.55676
O         14.92632         3.93396        -2.37736
O          7.52989        13.59543        -0.83860
O         22.80434         8.17471        -3.15780
O         29.26065         3.93663        -1.22078
O         19.34961        18.20299        -1.62922
O         29.62028        13.36991        -2.20590
O          2.89425        12.34237        -0.58141
O         21.82752        14.55772         0.46032
O         18.77456        14.70699        -1.81042
O         19.03317         3.87020        -3.17784
O          7.38564         4.76686         1.28347
O         37.81754         5.74315        -0.66713
H         38.55332         6.22351        -1.12158
O         26.37346        15.05919        -3.24422
H         25.59793        15.25990        -3.81391
O         13.99930         5.95083         1.63810
H         14.75775         6.51600         1.90199
O          4.02744        10.49659         2.35799
H          4.09206         9.56311         2.65086
O         10.06587         8.85790        -1.70000
H         10.11192         8.03577        -2.23229
O         13.86531        16.23103         3.02220
H         14.56551        15.58068         3.24605
O          8.73340        20.30803         2.04084
H          8.80330        19.94024         2.94542
O          2.11312         5.93287        -1.97856
H          2.19278         6.90291        -2.10300
O         14.10241         3.22083         1.12464
H         14.03350         4.10864         1.56124
O         21.15784        19.86080         1.17512
H         21.47316        19.09602         1.69901
H          0.34368         1.43752        -0.77290
H          0.30280         3.91158        -0.64257
H          2.51487         0.21378        -0.82485
H          0.34643         5.67748         0.38778
H          0.38846         8.00263         1.06070
H          0.37172         9.96082         1.32942
H          0.36769        12.36260         1.55438
H          0.35585        14.35364         1.36129
H          0.40819        16.78438         1.79733
H          1.66022        18.89187         2.02283
H          4.95630         0.24729        -0.89427
H          3.80856        20.13676         1.98368
H          7.43093         0.26714        -0.90939
H          6.26765        20.15468         1.64377
H          9.90291         0.27774        -1.04562
H          8.68617        19.68269         0.08766
H         12.33244         0.28736        -1.23718
H         11.19843        20.18653         1.35083
H         14.81041         0.22113        -1.25212
H         13.65733        20.18944         1.41654
H         17.30908         0.26345        -1.22752
H         16.10880        20.24704         1.13443
H         19.74100         0.32441        -1.34749
H         18.56930        20.25137         0.85405
H         22.14429         0.33672        -1.11785
H         20.88816        20.37951        -0.79667
H         24.55013         0.34541        -0.59299
H         23.38737        20.40898        -0.52496
H         26.93157         0.35386         0.08734
H         25.80909        20.45352        -0.83976
H         29.37369         0.38158         0.65096
H         28.30363        20.44210        -0.90506
H         31.71779         0.39375         1.27298
H         30.91220        20.41087        -0.91673
H         34.07986         0.42038         2.01173
H         33.37780        20.32132        -1.06452
H         36.45288         0.37639         2.24482
H         35.80743        20.25542        -0.88123
H         39.02830         0.30488         2.47665
H         38.27717        20.20322        -0.53422
H         41.16619         1.51154         2.27973
H         42.45822         3.56951         1.97334
H         42.55228         5.92703         1.24803
H         42.57465         7.87459         1.20358
H         42.60438        10.25210         0.82090
H         42.63699        12.11767         0.70462
H         42.68713        14.53553         0.58244
H         42.79522        16.42811         0.15472
H         40.66648        20.15757        -0.18322
H         42.77764        18.88930         0.16205
