         260
 CSIRO Nanostructure Databank - Neutral Graphene Oxide Data Set
C         30.41757        31.80904         0.53205
C         30.33396        32.98476         1.02722
C         30.38605        36.06373         1.07694
C         30.26743        37.29729         0.98632
C         30.20766        40.43508        -0.04417
C         30.23931        41.60061        -0.47358
C         32.70153        28.77071         0.42025
C         31.75980        29.57900         0.04285
C         32.81853        31.58010         1.26714
C         31.30364        30.79958         0.37786
C         32.79721        33.07239         1.11270
C         31.52822        33.79682         1.15639
C         32.74788        35.97846         1.28578
C         31.49400        35.17828         1.20298
C         32.70676        37.48670         1.01394
C         31.40353        38.13275         0.53167
C         32.64048        40.35731        -0.08171
C         31.36460        39.51818        -0.00292
C         32.59378        41.67040        -0.86853
C         31.29718        42.45725        -0.89551
C         32.61865        44.32369        -1.41375
C         31.46701        43.76022        -1.30068
C         35.44113        27.17687         0.58366
C         35.32214        28.58878         0.92753
C         33.95665        29.37005         0.83820
C         35.31407        31.53326         1.13671
C         34.00327        30.89970         0.59485
C         35.29603        33.04738         0.88403
C         34.02105        33.73528         0.99586
C         35.29562        35.92914         0.75779
C         34.06301        35.21203         1.15157
C         35.23435        37.40074         0.45482
C         33.98308        38.21515         0.69170
C         35.20779        40.26917        -0.45289
C         33.95169        39.67269         0.20354
C         35.12683        41.82257        -0.36025
C         33.91967        42.43250        -1.02680
C         35.11855        44.69738        -1.04033
C         33.90706        43.92864        -1.14971
C         35.28173        46.05240        -1.39821
C         37.87298        27.22810         0.31155
C         36.57152        26.70233         0.32611
C         37.81468        28.64621         0.47584
C         36.59764        29.32517         0.71682
C         37.83443        31.52966         0.91239
C         36.54865        30.82873         0.50622
C         37.78947        33.04420         0.89577
C         36.47911        33.76012         0.73093
C         37.74383        35.94014         0.29883
C         36.45624        35.21061         0.53941
C         37.76436        37.39084         0.66939
C         36.53257        38.16379         0.32637
C         37.68040        40.59947         0.37047
C         36.53591        39.67582         0.08108
C         37.59965        42.08763         0.27532
C         36.30748        42.72345        -0.10404
C         37.59710        44.82906        -0.67694
C         36.36426        44.11289        -0.63949
C         37.64692        46.19575        -1.06869
C         36.37176        46.68719        -1.39417
C         40.21041        24.62106        -0.89625
C         39.19262        25.18540        -0.48806
C         40.30384        27.29818        -0.27992
C         39.15150        26.44828         0.34200
C         40.43160        28.62240         0.47321
C         39.12077        29.36825         0.65677
C         40.35760        31.59272         0.72618
C         39.10966        30.82777         0.71445
C         40.25922        33.05594         0.47668
C         39.06819        33.72117         0.58160
C         40.27907        35.83255         1.03691
C         39.03664        35.20359         0.41123
C         40.22899        37.35167         1.25117
C         38.86054        37.91186         1.28235
C         40.14135        40.58648         0.62234
C         38.93150        40.15144         1.03820
C         40.10985        41.83815        -0.26244
C         38.91019        42.74828         0.05791
C         40.13466        44.91358        -0.03636
C         38.95815        44.10666        -0.65897
C         40.13868        46.41152        -0.26340
C         38.86924        47.01057        -0.89720
C         40.37112        48.63818        -2.00705
C         39.27317        48.15522        -1.71635
C         42.74554        24.55704        -1.45089
C         41.63028        24.98392        -0.52636
C         42.71665        27.34264        -0.86684
C         41.62324        26.57485        -0.50137
C         42.78652        28.77708        -0.57513
C         41.80703        29.32490         0.45419
C         42.83198        31.63217        -0.08580
C         41.69364        30.86761         0.47975
C         42.81291        33.08225         0.00304
C         41.50838        33.79868         0.11572
C         42.76775        36.06723         0.44262
C         41.49194        35.29489         0.28260
C         42.63080        37.58253         0.41631
C         41.44652        38.26832         1.04034
C         42.67683        40.52598         0.42846
C         41.41876        39.82726         0.88145
C         42.70910        41.92181        -0.11917
C         41.42548        42.66025        -0.25450
C         42.75332        44.83686         0.22145
C         41.41075        44.12410         0.12666
C         42.66663        46.29780        -0.02026
C         41.47376        47.13024        -0.43193
C         42.99795        48.33336        -1.92089
C         41.65645        48.35671        -1.36750
C         43.72542        25.31280        -1.55136
C         45.04758        27.43655        -1.75338
C         43.92898        26.72227        -1.44776
C         45.01038        28.98538        -1.78925
C         43.90129        29.54108        -0.89219
C         45.16450        31.76919        -0.98259
C         43.92899        30.96866        -0.61501
C         45.26287        33.11544        -0.29153
C         43.99650        33.79586        -0.04685
C         45.36492        35.89359         0.10886
C         44.03351        35.25663         0.24837
C         45.50415        37.18153        -0.25839
C         43.63388        38.34929        -0.09844
C         45.16984        40.30699         0.23264
C         43.91534        39.74458         0.16555
C         45.27618        41.80639         0.25065
C         44.03831        42.61319         0.03364
C         45.40522        44.68314         0.00755
C         44.07952        44.06355         0.49482
C         45.46419        45.91248        -0.72187
C         44.46550        46.29675        -1.75691
C         44.06907        47.72570        -1.92495
C         47.54194        27.30497        -1.57930
C         46.37309        27.00151        -1.93325
C         47.47392        28.64978        -0.75963
C         46.47057        29.57813        -1.51642
C         47.72602        31.56461        -0.50782
C         46.41096        30.91832        -0.78609
C         47.76831        33.06026        -0.46092
C         46.48881        33.71363        -0.07516
C         47.90459        35.88284         0.31661
C         46.59225        35.11693         0.39628
C         47.90929        37.35508         0.22966
C         46.59917        38.02910         0.23613
C         47.75576        40.25242         0.39512
C         46.44332        39.51353         0.43995
C         47.76950        41.74517         0.51014
C         46.46923        42.52844         0.94651
C         47.87058        44.62618         0.35020
C         46.58700        44.01044         0.43639
C         47.75948        45.91042        -0.19056
C         46.74457        46.49935        -0.66929
C         49.96861        28.82428        -0.01493
C         48.80893        29.30779        -0.57091
C         50.17534        31.43204         0.04640
C         49.03029        30.83964        -0.84652
C         50.36524        32.93791        -0.26225
C         49.10065        33.75976        -0.32464
C         50.37735        35.84642         0.31997
C         49.17846        35.17876         0.08857
C         50.41215        37.38141         0.28019
C         49.08128        38.08731         0.40613
C         50.15504        40.15064         1.26578
C         49.02846        39.49373         0.56296
C         50.06123        41.61358         1.61524
C         49.07979        42.42418         0.80546
C         50.28305        44.41841         1.44143
C         49.14040        43.92147         0.65766
C         51.11180        29.17127         0.44209
C         52.50174        31.41036         0.72527
C         51.52290        30.56480        -0.04666
C         52.55065        32.64287         0.73091
C         51.63512        33.65431         0.17194
C         52.65907        35.91805         0.91572
C         51.60449        35.09736         0.45669
C         52.59708        37.14837         1.17633
C         51.53121        38.07314         1.07773
C         52.43633        40.26553         1.99898
C         51.43430        39.39312         1.45001
C         52.48301        41.50242         2.13659
C         51.44837        42.49964         2.49757
C         51.27289        43.81349         1.87684
O         41.08023        37.77778         2.35688
O         33.32082        40.52871         1.19228
O         35.85308        37.59855        -0.84927
O         37.80548        32.29081         2.17752
O         41.26057        34.73376        -1.02319
O         43.49681        35.57051         1.61134
O         49.63325        43.03935        -0.39608
O         33.53380        35.65071         2.46064
O         42.18095        42.26279        -1.43236
O         51.36918        33.31129        -1.23581
O         46.31526        38.61830         1.58349
O         33.32800        41.68834        -2.12077
O         48.40638        33.65094        -1.63590
O         47.77039        41.16434        -0.79400
O         41.57220        48.48645         0.05732
O         38.33782        42.73135         1.37479
O         46.95207        30.96144         0.56350
O         40.56388        44.43639         1.26988
O         49.54014        40.70267         2.56211
O         41.32621        31.30202         1.82201
O         45.13637        32.13015        -2.44947
O         43.93729        45.46234        -2.46772
O         44.50062        37.76019        -1.01867
O         50.83951        37.66354        -1.15092
O         44.63339        29.28103        -3.10184
O         39.86480        28.68376         1.79076
O         42.66910        45.93945         1.28629
O         47.30999        35.38535         1.62513
O         38.55397        35.63053        -0.89218
O         46.37704        42.48067         2.29679
O         35.30391        42.43635         0.94194
O         39.26269        43.86771        -2.00351
O         34.52207        28.92998         2.06925
O         42.29669        40.48809         1.84731
O         39.19126        47.18755         0.51133
O         38.77449        39.12643         1.96637
O         31.38938        38.38141        -0.90158
O         37.55978        39.95575        -0.94655
O         33.45440        38.17170         2.04872
O         44.95065        42.35140        -1.07107
O         39.48026        26.09910         1.67094
H         38.69489        25.71913         2.11443
O         46.95091        28.31590         0.50872
H         47.62139        27.82534         1.02716
O         36.46624        31.03233        -0.94574
H         37.12955        30.45821        -1.38600
O         33.84584        31.17050        -0.79666
H         34.71740        31.06774        -1.25212
O         44.16510        43.97343         1.92351
H         44.18962        44.87238         2.31473
O         43.86643        31.77031        -2.99663
H         44.01231        30.79022        -3.24351
O         47.03706        29.81784        -2.79973
H         46.28146        29.71077        -3.44536
O         40.33403        35.26745         2.36598
H         40.96275        35.81092         2.89544
O         51.93439        30.47272        -1.37780
H         52.80637        30.02988        -1.43231
O         35.32866        31.33869         2.54936
H         36.17937        31.69992         2.89910
O         49.33274        31.04005        -2.20632
H         50.26184        30.77356        -2.38636
O         49.79071        37.13204        -2.00083
H         50.28545        36.51939        -2.59899
O         32.61253        31.16818         2.54562
H         32.05382        31.80273         3.03882
O         39.88540        41.39613        -1.60343
H         39.73229        42.22874        -2.14522
O         39.84125        27.69608        -1.60177
H         39.78110        26.88564        -2.15535
O         51.14267        42.50310         3.82629
H         51.08690        41.58701         4.16832
O         49.70674        31.36030         1.39507
H         50.46534        31.45960         2.00936
O         41.87970        24.53575         0.77130
H         41.91808        23.55817         0.77995
O         35.12852        39.91403        -1.83493
H         36.04209        39.83821        -2.19246
O         42.44005        28.96567         1.70271
H         41.83832        29.26411         2.42327
