         344
 CSIRO Nanostructure Databank - Neutral Graphene Oxide Data Set
C          1.25333         3.54304        -0.96416
C          0.05833         4.30029        -1.06527
C          1.23389         6.27064        -0.12940
C          0.03047         5.64240        -0.78373
C          1.24624         7.78391        -0.11678
C          0.09263         8.45778         0.31697
C          1.21959        10.61483         0.14277
C          0.07547         9.84013         0.44024
C          1.17811        12.07278         0.22778
C          0.07292        12.77260         0.64900
C          1.15244        14.97431         0.44169
C          0.02760        14.19990         0.67202
C          1.14145        16.43810         0.52842
C         -0.05991        17.16320         0.67197
C          1.13959        19.26829         0.41450
C         -0.05601        18.54958         0.58840
C          1.11972        20.70349         0.07229
C         -0.09398        21.52980         0.17222
C          1.19910        23.62505         0.00551
C         -0.04393        22.87573         0.01417
C          1.19263        25.02861        -0.09837
C          0.07255        25.76708        -0.61244
C          1.18118        27.97265        -0.16170
C          0.05693        27.12410        -0.69654
C          1.30446        29.30059        -0.86017
C          3.70665         3.46795        -0.89935
C          2.51037         4.18279        -0.80507
C          3.66858         6.35254        -0.70958
C          2.51755         5.63874        -0.62196
C          3.69406         7.86283        -0.82854
C          2.40354         8.53266        -0.39749
C          3.64345        10.70473        -0.66606
C          2.39664         9.93809        -0.26373
C          3.66142        12.14540        -0.23086
C          2.34388        12.86533        -0.31477
C          3.60447        14.95595         0.22845
C          2.39953        14.28923         0.17441
C          3.61151        16.43414         0.23823
C          2.34929        17.16188         0.41144
C          3.65125        19.30443         0.55359
C          2.38474        18.57925         0.42053
C          3.66733        20.71316         0.55540
C          2.46319        21.45125         0.13719
C          3.64894        23.57588         0.45641
C          2.42736        22.91200         0.24630
C          3.69614        25.02415         0.01603
C          2.41094        25.78877         0.37072
C          3.69035        27.84472        -0.28580
C          2.47885        27.21190        -0.12763
C          3.75586        29.23249        -0.73812
C          2.50097        29.88292        -1.08613
C          6.26615         3.46030        -0.71293
C          4.99336         4.14362        -0.97617
C          6.16460         6.30101        -0.25229
C          4.96715         5.67152        -0.93677
C          6.18067         7.81158        -0.28736
C          4.86529         8.50732        -0.02310
C          6.10843        10.67873        -0.29228
C          4.92654         9.98789        -0.32404
C          6.13168        12.13619        -0.20122
C          4.85498        12.82845        -0.11784
C          6.07260        14.91994         0.36643
C          4.86997        14.25798         0.13499
C          6.03836        16.29986         0.96900
C          4.89759        17.16010         0.48865
C          6.07042        19.26034         1.19837
C          4.87647        18.60692         0.82162
C          6.08761        20.72124         1.18948
C          4.86252        21.43794         0.85131
C          6.06059        23.66874         1.09946
C          4.83311        22.86163         0.73055
C          6.14275        25.07743         0.57588
C          4.93197        25.80788         0.38197
C          6.16061        27.93932         0.11863
C          4.92676        27.16430         0.06274
C          6.21609        29.25872        -0.54617
C          4.96187        29.88201        -0.88751
C          8.72322         3.46675        -0.75349
C          7.47090         4.14715        -0.63522
C          8.63391         6.32147        -0.55942
C          7.47324         5.61616        -0.56460
C          8.59409         7.81535        -0.84286
C          7.34947         8.50080        -0.31561
C          8.55730        10.63557        -0.01004
C          7.37895         9.96126        -0.18462
C          8.64594        12.12541        -0.25405
C          7.32387        12.82841        -0.03996
C          8.54821        14.92393         0.50553
C          7.33238        14.23742         0.27055
C          8.55415        16.33625         0.81967
C          7.33263        17.05015         0.91990
C          8.53970        18.90982         1.73402
C          7.28880        18.41249         1.30685
C          8.56448        21.03448         1.66394
C          7.27604        21.50928         1.23453
C          8.53076        23.49648         0.54686
C          7.31845        22.89131         0.87320
C          8.60187        24.90507         0.30680
C          7.38728        25.67641         0.38708
C          8.69950        27.72248        -0.28789
C          7.47690        27.13426         0.23913
C          8.69485        29.10888        -0.69891
C          7.43687        29.82590        -0.82726
C         11.18475         3.52689        -0.92244
C          9.94530         4.15077        -0.69966
C         11.19256         6.34022        -0.54230
C          9.92097         5.59178        -0.24804
C         11.15633         7.80886        -0.40259
C          9.87505         8.55710        -0.47245
C         11.06719        10.61260         0.38092
C          9.77925         9.82711         0.36514
C         10.98738        12.02206         0.89447
C          9.80840        12.81763         0.41455
C         11.04542        14.91369         0.84122
C          9.80533        14.19727         0.57061
C         11.06779        16.32948         0.92041
C          9.79594        17.03312         0.94422
C         11.00465        19.25777         1.00446
C          9.78389        18.38663         1.34056
C         11.02623        20.70854         1.61772
C          9.77177        21.46505         1.22169
C         11.05222        23.39433         0.32171
C          9.75253        22.63795         0.28366
C         11.06885        24.76612         0.04543
C          9.83825        25.52835         0.00602
C         11.12300        27.56039        -0.60318
C          9.87830        26.93439        -0.32725
C         11.17126        28.95923        -1.17649
C          9.87238        29.70079        -1.10426
C         13.65459         3.61083        -1.05749
C         12.42439         4.22943        -0.83848
C         13.65523         6.36435        -0.38779
C         12.39751         5.66850        -0.57394
C         13.62937         7.74904         0.12319
C         12.32622         8.47419         0.23432
C         13.52164        10.65545         0.49924
C         12.28804         9.95986         0.33877
C         13.50861        12.05598         0.74103
C         12.28456        12.77380         0.81468
C         13.51847        14.89046         1.06356
C         12.28098        14.18417         0.90813
C         13.52323        16.32037         1.20598
C         12.28297        17.04766         1.12949
C         13.48599        19.19149         1.38446
C         12.30754        18.50421         1.23001
C         13.56423        20.70721         1.54056
C         12.28428        21.40543         1.14329
C         13.52825        23.23038        -0.04911
C         12.27101        22.64197         0.54695
C         13.54906        24.74740        -0.05289
C         12.33238        25.46168        -0.11054
C         13.59623        27.55367        -0.53006
C         12.33790        26.86615        -0.39209
C         13.62333        28.97795        -0.73182
C         12.34035        29.75848        -0.57082
C         16.11779         3.68258        -1.10637
C         14.90487         4.31233        -0.92599
C         16.11558         6.45023        -0.36563
C         14.87094         5.72179        -0.53630
C         16.07871         7.87346        -0.08031
C         14.86762         8.52027         0.12206
C         16.03890        10.65478         0.67621
C         14.81663        10.02027         0.06570
C         15.97024        11.99949         1.04827
C         14.74710        12.75004         0.94945
C         15.97205        14.85182         1.38147
C         14.73728        14.15781         1.15239
C         15.97384        16.27708         1.45458
C         14.74714        16.99824         1.40099
C         16.02445        19.18438         1.31653
C         14.75768        18.46567         1.74912
C         16.06825        20.55344         1.05442
C         14.82393        21.31238         0.94256
C         16.02969        23.33455         0.22640
C         14.81039        22.59592         0.43708
C         16.02015        24.68457        -0.08209
C         14.78307        25.41585        -0.21115
C         16.04877        27.50125        -0.74392
C         14.80618        26.83068        -0.45561
C         16.03691        28.89001        -1.09891
C         14.80495        29.61777        -1.01374
C         18.60993         3.86584        -1.50632
C         17.41884         4.32494        -0.70639
C         18.54498         6.60172        -0.65665
C         17.33812         5.83038        -0.60495
C         18.53825         7.98736        -0.29356
C         17.30750         8.61599         0.02651
C         18.51807        10.63659         0.71858
C         17.28714         9.96375         0.52193
C         18.53371        11.92869         1.40009
C         17.15761        12.66623         1.58635
C         18.40190        14.82820         1.69939
C         17.18052        14.14068         1.61555
C         18.42439        16.22295         1.46439
C         17.23020        16.95336         1.47405
C         18.59103        19.10708         1.04313
C         17.26742        18.43096         1.46924
C         18.48883        20.47035         0.49697
C         17.30468        21.18540         0.65500
C         18.45065        23.23968        -0.31067
C         17.35171        22.68979         0.57191
C         18.48727        24.59677        -0.54680
C         17.33031        25.44759        -0.06527
C         18.45017        27.40283        -1.20908
C         17.26644        26.79120        -0.74718
C         18.43217        28.79096        -1.57877
C         17.22929        29.51953        -1.48046
C         19.70661         4.64004        -1.63176
C         20.92306         6.77064        -1.16217
C         19.74671         6.00397        -1.12324
C         20.93643         8.09701        -0.72459
C         19.76099         8.73458        -0.28592
C         20.88310        10.93000         0.21691
C         19.74363        10.10660         0.20804
C         20.86206        12.24268         0.74733
C         19.74173        12.74936         1.37336
C         20.92026        14.92746         1.99287
C         19.67251        14.08528         2.09882
C         20.92925        16.18414         1.53561
C         19.70569        16.76936         0.87199
C         20.77681        18.84541        -0.00732
C         19.74066        18.26714         0.67115
C         20.73199        20.21270        -0.42533
C         19.62347        21.00157        -0.21770
C         20.76291        23.05142        -1.20906
C         19.47378        22.32771        -0.93586
C         20.80527        24.40250        -1.34041
C         19.65202        25.22977        -1.10608
C         20.82980        27.31550        -1.79348
C         19.67336        26.64467        -1.35037
C         20.80815        28.68416        -2.10380
C         19.63573        29.41564        -2.01294
O         18.20419        18.99472         2.44793
O         12.84485         7.83101         1.42895
O         10.78521         8.60652        -1.61108
O         17.79416        11.95955         2.68517
O          6.89658        27.87843         1.37685
O          8.53320        19.99713         2.61498
O          5.15458         5.04278        -2.19485
O          1.89546        20.97047        -1.13393
O          4.46630        16.92943        -0.88165
O          3.89618        24.95195        -1.37328
O          8.44800         7.90427        -2.28947
H          9.35391         8.04240        -2.65767
O          4.54710         8.37569         1.39020
H          4.79257         7.45512         1.65296
O         11.50886        28.83066        -2.59742
H         10.78506        28.33336        -3.03288
O          3.60473        10.77647        -2.15082
H          2.89600        11.43966        -2.36528
O         13.47710        22.86181        -1.47856
H         12.54901        22.97304        -1.77752
O         17.66808         3.84290         0.67232
H         16.92195         4.15643         1.22698
O          0.84025        28.25618         1.25524
H          1.47988        28.92890         1.57435
O          9.61763        22.13624        -1.09820
H          9.30632        22.88148        -1.65387
O          9.56507         9.37040         1.73828
H          9.72884        10.15562         2.31797
O         19.55389        13.79569         3.51904
H         18.83041        13.12906         3.62570
O         17.58468        25.76766         1.35821
H         18.42394        26.27471         1.39702
O         13.73476        20.95364         2.98616
H         12.83679        20.84755         3.39318
O         10.88735        19.47271        -0.42445
H         10.87156        18.60018        -0.87025
O         18.92180        21.95630        -2.26110
H         18.81152        22.78716        -2.77131
O          5.76403        16.09379         2.40205
H          6.49809        15.55951         2.77324
O         11.09309        20.58652         3.05901
H         10.20299        20.27965         3.36294
O          2.06385        12.98991        -1.78455
H          2.60788        13.73758        -2.11701
O         10.72296        11.83470         2.38465
H         11.58314        11.58668         2.79075
O         12.10869        30.01383         0.81813
H         12.12659        29.16007         1.29794
O          1.13695         5.88420         1.29068
H          1.11700         4.90373         1.32245
O          2.32175        25.85378         1.82577
H          1.61656        26.51268         2.03170
O          5.93233         5.97685         1.17690
H          6.76713         6.16294         1.66092
O          9.89897         5.53802         1.23693
H         10.75547         5.15978         1.53207
O          5.95136        23.82108         2.56746
H          6.64853        24.45070         2.85079
O         19.67709        16.19594        -0.48936
H         20.44166        16.56087        -0.98379
O         14.90880        10.32435        -1.39584
H         14.79701        11.29451        -1.49576
O          8.93871        12.24357        -1.70229
H          8.20290        11.80900        -2.18555
O         14.81634        18.49693         3.21963
H         14.64804        19.44182         3.47582
O         17.68044        23.09591         1.94180
H         17.62586        24.08611         1.98079
O          3.92242         8.08062        -2.23700
H          3.80583         9.04574        -2.43389
H          1.22683         2.46324        -1.16942
H         -0.85680         3.79252        -1.40495
H         -0.90520         6.21179        -0.88026
H         -0.80748         7.88206         0.57462
H         -0.85084        10.32798         0.77166
H         -0.82677        12.24090         0.98921
H         -0.92508        14.67251         0.94714
H         -1.01878        16.63905         0.77807
H         -1.01530        19.08389         0.61749
H         -1.06497        21.04045         0.33284
H         -0.98626        23.44190         0.03369
H         -0.79039        25.20650        -1.00376
H         -0.81829        27.63610        -1.12439
H          0.37481        29.82674        -1.12637
H          3.68312         2.36748        -0.87877
H          2.55151        30.88079        -1.54890
H          6.27038         2.35900        -0.70746
H          4.98057        30.90599        -1.29179
H          8.71771         2.38814        -0.97498
H          7.47355        30.82761        -1.28252
H         11.20398         2.45636        -1.17949
H          9.86303        30.73724        -1.47390
H         13.68243         2.53884        -1.30495
H         12.41775        30.74792        -1.08341
H         16.13701         2.61151        -1.36184
H         14.81568        30.70324        -1.19300
H         18.60147         2.84041        -1.90525
H         17.22343        30.59091        -1.72937
H         20.59818         4.26222        -2.15547
H         21.85325         6.31236        -1.52803
H         21.88803         8.64625        -0.73834
H         21.82742        10.56110        -0.20558
H         21.77975        12.84703         0.70052
H         21.82819        14.50262         2.44831
H         21.85774        16.77638         1.54897
H         21.65420        18.24375        -0.29196
H         21.58298        20.58697        -1.00924
H         21.66897        22.46885        -1.42604
H         21.75555        24.87544        -1.62493
H         21.77634        26.77096        -1.90674
H         21.73400        29.17198        -2.43953
H         19.62058        30.48207        -2.27868
