         344
 CSIRO Nanostructure Databank - Neutral Graphene Oxide Data Set
C          1.15932         2.02646        -0.07387
C          1.11376         3.39368        -0.03957
C          2.37722         1.31533        -0.26231
C          2.31402         4.18128        -0.33299
C          1.26941         6.33809         0.65900
C          1.26772         7.67821         0.85529
C          2.25797         5.71555        -0.29568
C          2.37004         8.52812         0.44693
C          1.20056        10.67201         0.88576
C          1.23065        12.03688         0.93394
C          2.39206         9.89531         0.67615
C          2.46186        12.79957         0.83853
C          1.26074        15.01813         0.83257
C          1.24586        16.37650         0.74863
C          2.47198        14.22925         0.75042
C          2.45511        17.12416         0.37744
C          2.55068        18.58733         0.52249
C          3.62502         1.93141        -0.23070
C          3.65478         3.43387        -0.28700
C          4.79628         1.12526        -0.47444
C          4.86113         4.26556        -0.04626
C          3.61747         6.38403        -0.15189
C          3.57080         7.85352        -0.11804
C          4.82780         5.70915        -0.19755
C          4.90277         8.60084        -0.09548
C          3.69746        10.60987         0.94015
C          3.68181        12.10372         0.78340
C          4.93656         9.98179         0.38172
C          4.93750        12.78472         0.83925
C          3.72736        14.89821         0.72901
C          3.76334        16.33988         0.41854
C          4.93767        14.20675         0.89250
C          5.01819        17.08643         0.58240
C          3.74879        19.21698         0.44370
C          5.01338        18.49735         0.43791
C          6.06525         1.53563        -0.06371
C          6.05764         3.70012         0.34506
C          7.36139         1.23871        -0.51885
C          7.34018         4.28658         0.11105
C          6.10234         6.42130        -0.10110
C          6.14327         7.81998        -0.04620
C          7.34244         5.69560        -0.03894
C          7.38020         8.52838         0.10545
C          6.15648        10.65601         0.50887
C          6.16683        12.05181         0.80291
C          7.39654         9.93198         0.30094
C          7.47353        12.72752         1.10202
C          6.20379        14.94797         1.27125
C          6.21773        16.39817         0.85109
C          7.47404        14.21959         0.89789
C          7.43250        17.08914         0.84233
C          6.23910        19.18532         0.45357
C          7.44927        18.48995         0.62170
C          8.50857         2.06216        -0.30034
C          8.53003         3.49581        -0.03665
C          9.75543         1.42359        -0.56311
C          9.77692         4.20106        -0.12063
C          8.58757         6.38762        -0.05923
C          8.60992         7.80736         0.01660
C          9.80231         5.64210        -0.06732
C          9.84904         8.51722        -0.02248
C          8.63777        10.64240         0.27650
C          8.66777        12.05329         0.49059
C          9.84174         9.92570         0.03390
C          9.88977        12.78861         0.37491
C          8.66224        14.89726         0.82871
C          8.69599        16.35877         1.22724
C          9.91433        14.20185         0.60167
C          9.96416        17.07490         0.83771
C          8.71603        19.18157         0.64160
C          9.91010        18.51325         0.74401
C         10.97104         2.08243        -0.52682
C         11.00840         3.48731        -0.30692
C         12.22820         1.28446        -0.78023
C         12.27048         4.16278        -0.25262
C         11.03441         6.36165        -0.03907
C         11.08247         7.76986        -0.07864
C         12.27684         5.58845         0.09781
C         12.34551         8.47451        -0.18839
C         11.06959        10.68528        -0.36314
C         11.11438        12.11462         0.09869
C         12.36478         9.93257        -0.21293
C         12.33307        12.80870         0.12767
C         11.14263        14.91310         0.54742
C         11.14998        16.37154         0.65660
C         12.35164        14.20428         0.33411
C         12.40038        17.08078         0.42700
C         11.18507        19.31139         0.77747
C         12.40978        18.51307         0.40985
C         13.51403         2.05384        -0.59125
C         13.49173         3.48679        -0.43524
C         14.70648         1.37225        -0.58113
C         14.74707         4.21165        -0.48402
C         13.60445         6.34172         0.05280
C         13.56088         7.79259        -0.17622
C         14.79605         5.59094        -0.34314
C         14.79509         8.46486        -0.52555
C         13.53873        10.62412        -0.30646
C         13.64407        12.04599         0.18497
C         14.72265         9.92328        -0.90904
C         14.84219        12.80671        -0.34251
C         13.68608        14.89783         0.49144
C         13.60943        16.38285         0.21902
C         14.84845        14.20425        -0.20049
C         14.80144        17.08782        -0.06199
C         13.57413        19.20608         0.15718
C         14.79830        18.52311        -0.08913
C         15.97106         2.06007        -0.57671
C         15.98684         3.48115        -0.67246
C         17.18675         1.36563        -0.50785
C         17.20809         4.16335        -0.90924
C         16.11181         6.32284        -0.38702
C         15.96421         7.78768        -0.71581
C         17.13430         5.63223        -1.30276
C         17.12837         8.48172        -1.38564
C         16.04148        10.65251        -0.81503
C         16.02411        12.10800        -0.70528
C         17.18785         9.96738        -1.09086
C         17.22869        12.82913        -0.92839
C         16.02205        14.94069        -0.50467
C         16.02887        16.39491        -0.35484
C         17.19623        14.24129        -0.88015
C         17.20274        17.12889        -0.50146
C         15.98809        19.24301        -0.28440
C         17.22632        18.57274        -0.42822
C         18.41556         2.05701        -0.57360
C         18.41192         3.45832        -0.89169
C         19.62702         1.38324        -0.24545
C         19.69816         4.13399        -1.16719
C         18.44830         6.38379        -1.19980
C         18.43956         7.74000        -1.18090
C         19.74094         5.63763        -1.46510
C         19.68236         8.52999        -0.81779
C         18.42282        10.67902        -1.58799
C         18.47776        12.14353        -1.23094
C         19.71043         9.93937        -1.33974
C         19.68234        12.81461        -1.31380
C         18.43835        14.96990        -1.18713
C         18.43770        16.45652        -0.94079
C         19.72889        14.24820        -1.17352
C         19.73281        17.07811        -0.58819
C         18.42729        19.28827        -0.60132
C         19.72302        18.64105        -0.47335
C         20.85095         2.05319        -0.16704
C         20.95349         3.42372        -0.72210
C         22.01288         1.43865         0.32712
C         22.16651         4.21256        -0.42548
C         20.97098         6.34976        -0.91664
C         20.98480         7.75643        -0.94823
C         22.16479         5.63513        -0.60687
C         22.21325         8.45696        -0.87758
C         20.94966        10.61629        -1.62756
C         20.96115        12.14293        -1.79268
C         22.25952         9.88740        -1.28900
C         22.20649        12.81978        -1.19957
C         20.94146        14.93731        -1.13494
C         20.98141        16.38413        -0.95163
C         22.18917        14.18764        -1.05664
C         22.16059        17.10112        -0.95941
C         20.98937        19.28601        -0.73736
C         22.18098        18.54948        -0.82354
C         23.24406         2.13597         0.40371
C         23.29507         3.55062         0.06816
C         24.40472         1.49112         0.84825
C         24.52655         4.26545         0.24546
C         23.37762         6.35634        -0.37061
C         23.41849         7.76552        -0.60633
C         24.56815         5.66395        -0.00602
C         24.67404         8.46086        -0.51098
C         23.45847        10.67188        -0.99353
C         23.45357        12.07302        -1.01606
C         24.76002         9.87557        -1.02989
C         24.68071        12.80611        -0.86545
C         23.41586        14.96734        -0.62161
C         23.43867        16.36435        -1.26821
C         24.72083        14.21839        -0.81263
C         24.67082        17.13285        -0.88872
C         23.42892        19.22523        -0.82134
C         24.66197        18.52273        -0.77720
C         25.64511         2.17601         0.94521
C         25.70426         3.57929         0.63982
C         26.81325         1.50780         1.35295
C         26.95625         4.27104         0.69424
C         25.81565         6.36450         0.10188
C         25.83888         7.79461        -0.13612
C         26.99682         5.67075         0.40010
C         27.06740         8.51721         0.16068
C         25.90395        10.63943        -0.46846
C         25.95120        12.05842        -0.78813
C         26.96056        10.00608         0.37367
C         27.23005        12.80363        -0.51838
C         25.92850        14.93327        -0.70948
C         25.98027        16.41550        -1.02103
C         27.18830        14.28450        -0.44738
C         27.05522        17.09529        -0.16708
C         25.91470        19.25117        -0.61887
C         27.09189        18.59904        -0.36459
C         28.04932         2.18395         1.41792
C         28.12561         3.55226         1.05659
C         29.21873         1.50037         1.91180
C         29.47954         4.20323         0.97765
C         28.33535         6.37287         0.24548
C         28.23235         7.86379         0.48452
C         29.43460         5.70773         1.03764
C         29.42696         8.58993         0.89707
C         28.29322        10.73542         0.35656
C         28.35307        12.07923         0.12033
C         29.47517        10.00794         0.80094
C         29.49443        12.91586         0.64616
C         28.36483        14.96971        -0.21114
C         28.43774        16.46103        -0.40697
C         29.67174        14.21337        -0.14796
C         29.51697        17.15417         0.43846
C         28.34911        19.28251        -0.20281
C         29.52659        18.63449         0.10342
C         30.37200         2.19829         2.20404
C         30.48384         3.57865         1.90718
C         31.55542         4.35917         2.38072
C         30.52240         6.41978         1.50818
C         30.57380         7.87780         1.34215
C         31.59562         5.72763         2.17391
C         31.76198         8.58815         1.59444
C         30.70217        10.70206         1.01186
C         30.78150        12.14392         0.81661
C         31.83475         9.96148         1.40491
C         31.94402        12.86756         0.90989
C         30.86246        15.01479         0.37201
C         30.86101        16.46529         0.30482
C         31.95899        14.29846         0.78847
C         32.00839        17.22402         0.29788
C         30.77822        19.33617         0.16103
C         31.96369        18.65538         0.26742
O          3.00988         3.80584        -1.57149
O         21.79461         9.99020        -2.70626
O         26.94593        12.34711        -1.88951
O          6.02730         2.46974         0.99255
O         19.75082        17.70059         0.69158
O         20.53911         3.42655        -2.14855
O         18.35038        15.93769        -2.30600
O          3.08853        16.63338        -0.85534
O          4.09834         8.47892        -1.33798
O         13.02287         5.89944         1.33463
O         14.45435         9.92223        -2.37422
H         13.48555         9.81019        -2.50066
O         29.07314        13.33115         1.98459
H         28.94508        12.52355         2.52506
O         29.99837        13.86641        -1.51897
H         29.92422        14.69289        -2.04760
O         16.68514         6.25017         0.96188
H         15.97523         6.48158         1.59899
O         14.01388        14.76386         1.93519
H         13.32209        15.24822         2.43610
O         23.29118        15.20505         0.80671
H         23.38003        14.34837         1.27319
O          6.21666        14.96551         2.75353
H          6.52087        14.06016         3.02824
O         28.87883        16.66013        -1.77659
H         28.09505        16.51741        -2.36526
O         19.86322         5.75186        -2.91930
H         20.41597         4.98504        -3.20725
O          8.70126        16.32928         2.70107
H          7.81979        15.95951         2.97065
O         21.01968        12.42165        -3.21425
H         21.46965        11.65406        -3.63694
O         16.84531         8.40207        -2.83282
H         15.95820         8.82616        -2.96261
O         18.31126        10.64818        -3.06019
H         17.94691         9.75613        -3.30427
O         10.95809        10.78289        -1.85269
H         10.09045        11.19907        -2.04859
O         23.52564        16.14594        -2.71793
H         23.25361        16.97523        -3.16517
O         26.62677        16.83119         1.18499
H         27.38248        17.02185         1.79089
O         26.50325        10.16375         1.79146
H         27.08850         9.60023         2.34255
O         12.22802         0.08963         0.01680
H         12.22689         0.35373         0.95956
O         29.97980         3.89132        -0.41143
H         30.92645         4.15244        -0.43155
O         26.32163        16.50524        -2.44710
H         25.54371        16.14153        -2.93715
O         11.08351        20.49054        -0.03136
H         10.97181        20.21277        -0.96344
O          1.78776         6.10603        -1.62212
H          2.29995         5.56410        -2.26497
O         28.70168         6.20941        -1.16732
H         29.03254         5.28077        -1.26440
O         16.65185         5.68773        -2.66249
H         17.42990         5.76684        -3.25537
O         29.17211        17.03139         1.85325
H         29.88384        17.46287         2.37105
O         25.00804         9.73958        -2.48280
H         24.15667         9.49693        -2.90895
O         19.53629         8.71285         0.65835
H         19.20000         7.86848         1.03127
O         13.91674        11.90860         1.62742
H         14.04032        12.82723         1.97828
O          7.62877        12.58721         2.61754
H          8.56303        12.81377         2.82357
O          3.87355        10.37919         2.41282
H          4.62485        10.94374         2.70164
H          0.23642         1.44922         0.08100
H          0.17453         3.90885         0.20424
H          2.33554         0.21819        -0.32405
H          0.46056         5.72678         1.08536
H          0.47366         8.12966         1.46934
H          0.22754        10.15916         0.88718
H          0.27761        12.57692         1.01477
H          0.31581        14.50136         1.05161
H          0.31624        16.93326         0.93892
H          1.62379        19.16466         0.65793
H          4.66838         0.19377        -1.04665
H          3.79321        20.31554         0.49151
H          7.51559         0.32072        -1.10702
H          6.25239        20.28034         0.34932
H          9.75277         0.34275        -0.76793
H          8.72473        20.27655         0.53516
H         12.19903         0.93602        -1.85193
H         11.32807        19.67524         1.83559
H         14.70124         0.27313        -0.62303
H         13.56072        20.30559         0.16579
H         17.18711         0.27586        -0.36001
H         15.96365        20.34227        -0.27466
H         19.57311         0.32874         0.06398
H         18.39037        20.37509        -0.76426
H         21.96822         0.39171         0.66214
H         21.01525        20.37598        -0.87938
H         24.36191         0.42334         1.10977
H         23.43546        20.32235        -0.74212
H         26.76453         0.44066         1.61591
H         25.88932        20.34967        -0.68996
H         29.13772         0.43296         2.16170
H         28.36954        20.37083        -0.37759
H         31.20347         1.69681         2.72230
H         32.35049         3.87423         2.96692
H         32.43859         6.29551         2.58699
H         32.66872         8.05838         1.91346
H         32.79143        10.46985         1.58398
H         32.90025        12.37092         1.12925
H         32.88304        14.82167         1.07766
H         32.99407        16.73720         0.26613
H         30.77521        20.43151         0.05725
H         32.91345        19.20841         0.27393
