         244
 CSIRO Nanostructure Databank - Neutral Graphene Oxide Data Set
C          1.25224         2.04616         0.63936
C          1.20173         3.46368         0.48503
C          2.42422         1.39252         0.85839
C          2.36652         4.23378         0.37316
C          1.12705         6.39092         0.02246
C          1.12141         7.77142        -0.02390
C          2.32638         5.63774         0.09429
C          2.33039         8.53392         0.28537
C          1.21283        10.76050         0.37683
C          1.25743        12.15589         0.47504
C          2.38139        10.01453         0.22423
C          2.46666        12.84610         0.37431
C          1.41788        15.00269         1.18190
C          1.45487        16.33515         1.44162
C          2.56535        14.27538         0.67639
C          2.72294        17.06473         1.43581
C          2.74128        18.53593         1.35614
C          3.69783         2.15837         1.07085
C          3.65518         3.56301         0.50634
C          4.91924         1.39741         0.62077
C          4.84966         4.21990         0.27222
C          3.57930         6.35181        -0.34680
C          3.64544         7.78519         0.14154
C          4.87149         5.63856        -0.03822
C          4.86250         8.53321        -0.17697
C          3.63011        10.68616         0.06750
C          3.66650        12.11231         0.08508
C          4.85480         9.96590        -0.18034
C          4.88829        12.80058        -0.18547
C          3.75314        14.93540         0.43289
C          3.94608        16.31021         0.88577
C          4.80810        14.28821        -0.42994
C          5.07345        17.09212         0.34094
C          3.87099        19.19743         1.01514
C          5.07821        18.52382         0.56905
C          6.06551         2.01857         0.26263
C          6.11794         3.48621         0.20591
C          7.29956         1.18995        -0.05980
C          7.29653         4.15688         0.01611
C          6.04567         6.34289        -0.11758
C          6.07140         7.79130        -0.32610
C          7.34088         5.66067         0.24759
C          7.28889         8.46415        -0.50526
C          6.04770        10.67604        -0.44576
C          6.07608        12.09827        -0.44424
C          7.27381         9.92059        -0.90782
C          7.32455        12.82868        -0.75904
C          6.14639        14.99701        -0.45080
C          6.12096        16.44586        -0.30565
C          7.29764        14.29689        -0.77385
C          7.29838        17.25758        -0.67018
C          6.22749        19.26424         0.33821
C          7.40298        18.63915        -0.15931
C          8.59261         1.96333         0.05529
C          8.54842         3.40497        -0.40891
C          9.77625         1.34275         0.28760
C          9.76835         4.18849         0.08030
C          8.54934         6.37133        -0.31097
C          8.53505         7.73861        -0.51382
C          9.80087         5.57491        -0.59120
C          9.79640         8.48072        -0.74915
C          8.54749        10.65442        -0.47750
C          8.49998        12.11553        -0.92793
C          9.78216         9.87990        -0.86232
C          9.79069        12.78992        -1.20650
C          8.47694        15.03872        -1.41983
C          8.58071        16.53934        -1.07718
C          9.82028        14.29885        -1.31638
C          9.83910        17.17371        -0.62455
C          8.59652        19.31509        -0.35020
C          9.84358        18.63003        -0.51738
C         11.06517         2.02675         0.18295
C         11.07701         3.43751        -0.03489
C         12.27630         1.33928         0.22621
C         12.28455         4.12161        -0.15711
C         11.04611         6.36083        -0.17548
C         11.01577         7.75213        -0.75628
C         12.27291         5.55130        -0.54720
C         12.29416         8.47384        -0.68781
C         11.02775        10.61641        -1.28519
C         11.04838        12.08456        -0.92271
C         12.31112         9.94591        -0.83135
C         12.25714        12.78632        -0.81366
C         11.03019        14.96149        -0.78788
C         10.96324        16.34263        -0.39503
C         12.22418        14.23091        -0.61721
C         12.15488        16.85336         0.21135
C         10.99683        19.45417        -0.60402
C         12.25557        19.02060        -0.10943
C         13.52607         2.02096         0.10542
C         13.53483         3.44416        -0.08878
C         14.75404         1.32922         0.17048
C         14.77512         4.16365        -0.12115
C         13.57542         6.25004        -0.76297
C         13.57139         7.73660        -0.91598
C         14.82368         5.57866        -0.36117
C         14.86240         8.48115        -0.82576
C         13.60572        10.66774        -1.21156
C         13.52619        12.10328        -0.76354
C         14.83413         9.94704        -0.70569
C         14.71408        12.77076        -0.41494
C         13.45743        14.89488        -0.26088
C         13.40239        16.28581         0.09772
C         14.66075        14.17636        -0.15390
C         14.58426        17.11312         0.59339
C         13.55757        19.31648        -0.46163
C         14.71321        18.54138        -0.03724
C         15.98679         2.02324         0.16855
C         15.99318         3.45594         0.08838
C         17.22519         1.34053         0.30243
C         17.21731         4.16882         0.26534
C         15.99240         6.33574        -0.15349
C         16.05966         7.73415        -0.38677
C         17.17490         5.66261         0.50594
C         17.25824         8.47267        -0.19339
C         16.00460        10.63753        -0.42899
C         15.97743        12.07078        -0.33448
C         17.25968         9.91094        -0.25793
C         17.19066        12.77501        -0.06094
C         15.91602        14.90664         0.07098
C         15.89253        16.38397         0.32286
C         17.16330        14.14624         0.21255
C         17.12519        17.15630         0.79880
C         15.94855        19.10366        -0.22731
C         17.27226        18.38343        -0.12330
C         18.42503         2.04529         0.43877
C         18.40256         3.47955         0.46228
C         19.68450         1.35692         0.56864
C         19.63880         4.23372         0.88337
C         18.48878         6.35903         0.22283
C         18.49059         7.77035         0.01463
C         19.68277         5.66306         0.38698
C         19.72765         8.48212        -0.00625
C         18.46847        10.62169        -0.17347
C         18.46442        12.06507        -0.07422
C         19.72688         9.90903        -0.11507
C         19.66818        12.77333         0.01486
C         18.39367        14.82485         0.61733
C         18.40266        16.33528         0.84329
C         19.68260        14.16660         0.34410
C         19.66836        17.04766         0.67871
C         18.46088        19.18180         0.34421
C         19.65419        18.48853         0.57612
C         20.87334         2.04376         0.63247
C         20.91456         3.46791         0.64310
C         22.10907         4.17379         0.51960
C         20.94522         6.32945         0.28253
C         20.96159         7.76629         0.07970
C         22.13074         5.57243         0.39288
C         22.16341         8.49455        -0.02033
C         20.95477        10.60597        -0.16871
C         20.97226        12.10694        -0.36913
C         22.15425         9.87950        -0.15595
C         22.15510        12.80012         0.25940
C         20.87686        14.87172         0.55738
C         20.88667        16.32258         0.70525
C         22.11030        14.10699         0.59873
C         22.09480        17.05889         0.76077
C         20.90381        19.17536         0.69399
C         22.08708        18.46134         0.79170
O          7.78842        17.26919        -2.05309
O          9.99680        13.48657        -2.51691
O         14.27624         8.08033        -2.16539
O          3.07793         8.00349         1.45775
O         16.03804        15.97742        -1.06814
O          3.74402        16.50612         2.32777
O         18.36284        15.41736         1.98794
O         12.33485         9.41340         0.51698
O         12.80230         5.68828        -1.89930
O         12.08170        18.05710         0.92089
O         17.64361        17.97056        -1.46776
H         16.98861        17.29276        -1.76826
O          9.55891         4.33506         1.50298
H         10.18550         5.02796         1.82740
O          8.51763        10.68251         0.98596
H          9.41360        10.91604         1.30832
O         11.02721        10.59223        -2.74500
H         11.91992        10.90416        -3.04476
O          7.26280         9.95564        -2.36603
H          6.48334         9.44994        -2.67797
O         14.42985        17.26075         2.01769
H         13.58975        17.75550         2.15802
O          7.32828        -0.00446         0.72134
H          7.42784         0.24686         1.66214
O          8.52944         3.34882        -1.85590
H          7.68926         2.93214        -2.13655
O          9.90912         5.39867        -2.01985
H         10.32388         6.20228        -2.40135
O          3.83665         2.30991         2.53355
H          4.64546         2.84130         2.69297
O          4.31198        14.42851        -1.81442
H          5.06617        14.25209        -2.41790
O         13.69715        10.67334        -2.67786
H         13.93712         9.74626        -2.93789
O          3.49950         6.45847        -1.81163
H          3.45990         5.54852        -2.17459
O         16.93678        17.68110         2.11974
H         17.03109        16.93490         2.75109
O          8.07269        14.99834        -2.81357
H          8.56700        14.25111        -3.23230
O         16.97352         5.80787         1.95454
H         17.72619         5.33303         2.38640
O         19.50267         4.36480         2.35998
H         20.33502         4.76772         2.68952
O         21.11092        12.30426        -1.82360
H         21.11657        13.27128        -1.98721
O          7.44095         5.86049         1.70925
H          6.64282         5.45892         2.11400
O         11.10966         6.50911         1.27751
H         10.52789         7.25700         1.53372
H          0.31155         1.48099         0.56400
H          0.21762         3.93462         0.35920
H          2.44602         0.29967         0.97885
H          0.15949         5.86727        -0.01055
H          0.18454         8.30536        -0.23669
H          0.24605        10.25003         0.48592
H          0.31773        12.69252         0.65804
H          0.45241        14.48372         1.25036
H          0.52825        16.88787         1.65664
H          1.82052        19.08638         1.60049
H          4.91126         0.30002         0.71497
H          3.88364        20.29774         1.01556
H          7.20760         0.85898        -1.13577
H          6.24690        20.33852         0.57430
H          9.78138         0.26520         0.51847
H          8.63139        20.39834        -0.15975
H         12.28119         0.24814         0.36960
H         10.86566        20.49076        -0.95174
H         14.75424         0.23375         0.27435
H         13.73327        20.10787        -1.20634
H         17.23292         0.24084         0.33661
H         15.98776        20.13673        -0.61256
H         19.68407         0.25746         0.54870
H         18.46632        20.28048         0.27882
H         21.82591         1.49223         0.62893
H         23.05818         3.61918         0.46883
H         23.10701         6.06722         0.30578
H         23.13112         7.97595         0.00102
H         23.11577        10.40036        -0.25721
H         23.11072        12.26270         0.33634
H         23.02225        14.59197         0.97501
H         23.06124        16.53846         0.78741
H         20.91619        20.27402         0.66360
H         23.04321        18.99920         0.86059
