         344
 CSIRO Nanostructure Databank - Neutral Graphene Oxide Data Set
C          1.70627         2.30912        -2.73843
C          1.60660         3.66113        -2.37030
C          2.88173         1.61270        -2.53003
C          2.68791         4.34033        -1.78708
C          1.40641         6.47204        -1.58805
C          1.33702         7.83189        -1.33028
C          2.60193         5.74739        -1.41266
C          2.46133         8.54248        -0.85776
C          1.35293        10.74765        -1.28457
C          1.41186        12.12734        -1.43675
C          2.46176        10.00832        -0.81977
C          2.59105        12.84920        -1.17734
C          1.47431        15.06356        -1.61013
C          1.50680        16.45160        -1.64912
C          2.62938        14.30983        -1.29785
C          2.67321        17.14913        -1.27306
C          2.74012        18.59987        -1.32057
C          4.00192         2.26130        -1.93839
C          3.90939         3.64184        -1.56789
C          5.20168         1.55407        -1.71376
C          5.03602         4.29136        -0.95602
C          3.73350         6.41829        -0.86613
C          3.63710         7.80563        -0.57316
C          4.96603         5.70198        -0.60327
C          4.78154         8.47524         0.05437
C          3.63714        10.72595        -0.48735
C          3.72659        12.12393        -0.70533
C          4.78832        10.02636         0.10237
C          4.99176        12.78325        -0.48858
C          3.82783        15.00246        -1.00104
C          3.82301        16.40777        -0.91383
C          5.12732        14.22314        -0.92097
C          4.95896        17.15466        -0.25184
C          3.88534        19.29238        -1.05310
C          5.08104        18.62210        -0.59791
C          6.30465         2.18374        -1.10980
C          6.20587         3.55960        -0.72563
C          7.51820         1.46757        -0.90759
C          7.31043         4.15629         0.10203
C          6.10299         6.37118        -0.10375
C          6.07057         7.79026         0.14475
C          7.35523         5.66350         0.08610
C          7.21373         8.50589         0.52869
C          6.09917        10.68115         0.14975
C          6.14050        12.08359        -0.13893
C          7.25419         9.93536         0.47663
C          7.49122        12.75773        -0.21426
C          6.14412        14.95167        -0.02513
C          6.28560        16.42706        -0.45609
C          7.46990        14.23988         0.05488
C          7.41143        17.14461         0.22899
C          6.23798        19.26863        -0.25107
C          7.41301        18.54650         0.23279
C          8.69343         2.10729        -0.46284
C          8.65309         3.50480        -0.10131
C          9.91750         1.40983        -0.40094
C          9.81616         4.18475         0.21748
C          8.50321         6.32087         0.48436
C          8.35066         7.70012         1.12399
C          9.78006         5.61326         0.54940
C          9.66035         8.47084         1.29612
C          8.52384        10.64160         0.68374
C          8.59865        12.03280         0.50540
C          9.69264         9.93287         1.09223
C          9.78719        12.75514         0.82922
C          8.60491        14.90669         0.43972
C          8.71936        16.41560         0.28544
C          9.80089        14.18601         0.79308
C          9.66210        17.05606         1.29956
C          8.60123        19.23565         0.58965
C          9.77121        18.55006         1.03502
C         11.11553         2.07179        -0.05781
C         11.08274         3.49249         0.20706
C         12.32871         1.36065         0.08009
C         12.28058         4.16788         0.46729
C         10.95492         6.27362         0.83126
C         10.97679         7.70607         1.17755
C         12.27868         5.57276         1.01210
C         12.22849         8.44488         1.03716
C         10.91191        10.61767         1.29450
C         10.97042        12.03026         1.18195
C         12.16158         9.83802         1.48606
C         12.22196        12.75303         1.33229
C         10.98805        14.91598         1.14395
C         10.98975        16.33849         1.28287
C         12.20881        14.21066         1.29859
C         12.17685        17.03339         1.51210
C         10.94933        19.21357         1.27035
C         12.19319        18.52939         1.76682
C         13.53378         2.03561         0.35430
C         13.51083         3.47129         0.44138
C         14.76872         1.36007         0.52642
C         14.73384         4.19385         0.53489
C         13.48499         6.39933         0.59826
C         13.47002         7.79768         0.72618
C         14.70681         5.64670         0.11361
C         14.68217         8.60683         0.49431
C         13.46752        10.59930         1.48321
C         13.42040        12.07479         1.47805
C         14.62382         9.96368         0.79947
C         14.70710        12.81642         1.78449
C         13.41410        14.94669         1.40363
C         13.40986        16.33777         1.52471
C         14.69226        14.20673         1.14703
C         14.67872        17.10799         1.82400
C         13.45039        19.15973         1.19961
C         14.64983        18.50392         1.23523
C         15.95664         2.06767         0.77542
C         15.92029         3.51303         0.76452
C         17.20310         1.37298         0.83687
C         17.14516         4.28356         1.02270
C         15.99168         6.40507         0.33710
C         15.92751         7.87801        -0.10126
C         17.17628         5.73026         0.67542
C         17.25098         8.53700         0.24844
C         15.63548        10.95252         0.47068
C         15.89285        12.10953         1.16645
C         17.43454         9.87495         0.13920
C         17.19757        12.77153         1.17468
C         15.94538        14.97841         1.46036
C         15.95172        16.34648         1.52593
C         17.18859        14.20456         1.58775
C         17.19735        17.08179         1.38120
C         15.89455        19.12742         0.87429
C         17.12950        18.49368         0.98845
C         18.44631         2.02382         0.85265
C         18.47555         3.49586         1.06184
C         19.65431         1.31635         0.69523
C         19.70001         4.21907         0.75318
C         18.46308         6.35205         0.68618
C         18.51122         7.72089         0.09719
C         19.70210         5.63056         0.68285
C         19.77901         8.52274         0.36979
C         18.43766        10.59907         0.99624
C         18.40058        12.11413         1.00949
C         19.77181         9.97757         0.69033
C         19.69409        12.74831         1.53304
C         18.50318        14.97990         1.64873
C         18.41346        16.42443         1.39417
C         19.75266        14.24387         1.33985
C         19.67221        17.15880         1.16868
C         18.33757        19.15858         0.60026
C         19.58432        18.53428         0.62867
C         20.92224         1.97022         0.60372
C         20.88506         3.44313         0.36381
C         22.13528         1.30906         0.66695
C         22.16474         4.17943         0.10589
C         20.96120         6.33325         0.55432
C         21.02812         7.77126         0.61750
C         22.19791         5.63752         0.38176
C         22.20631         8.44563         0.85238
C         21.00302        10.67519         1.08423
C         20.98405        12.04186         1.15310
C         22.26429         9.89217         1.28677
C         22.21688        12.77759         0.96385
C         20.91602        14.89276         1.02423
C         20.95770        16.37837         0.99918
C         22.16510        14.17878         0.77384
C         22.08598        17.02891         0.29898
C         20.77365        19.14706         0.16101
C         21.98676        18.45057        -0.00453
C         23.41300         2.07751         0.94304
C         23.47266         3.39172         0.13352
C         24.72389         1.36068         0.71736
C         24.66992         4.25361         0.58102
C         23.40119         6.31868         0.38752
C         23.49928         7.68992         0.97995
C         24.63233         5.61949        -0.11431
C         24.69199         8.48417         0.47806
C         23.49417        10.63394         0.82907
C         23.44621        12.06678         0.75571
C         24.66388         9.90030         0.56351
C         24.60779        12.81546         0.40302
C         23.30614        14.88538         0.30292
C         23.21722        16.29698        -0.00052
C         24.54190        14.19250         0.11885
C         24.32785        16.91138        -0.81767
C         23.14235        19.11131        -0.49327
C         24.33611        18.42276        -0.77153
C         25.91903         2.05645         0.47213
C         25.94494         3.49384         0.32867
C         27.17000         1.37086         0.33240
C         27.11626         4.20075         0.06183
C         25.91765         6.37995         0.09012
C         25.89767         7.79871         0.17776
C         27.12021         5.66074        -0.03717
C         27.12620         8.52272        -0.06330
C         25.94381        10.62565         0.46238
C         25.91311        12.14011         0.40127
C         27.14196         9.92524        -0.01888
C         27.10805        12.84478        -0.10362
C         25.76093        14.91696        -0.24335
C         25.68222        16.27951        -0.59098
C         27.01883        14.23475        -0.29916
C         26.84005        17.01190        -1.00157
C         25.49100        19.09152        -1.18036
C         26.72231        18.40339        -1.38356
C         28.35907         2.06158         0.09009
C         28.35740         3.49315        -0.04871
C         29.61901         1.36759        -0.02134
C         29.56199         4.19976        -0.28948
C         28.34040         6.35589        -0.27578
C         28.33555         7.79640        -0.35091
C         29.55914         5.62815        -0.44728
C         29.50802         8.50589        -0.65637
C         28.31099        10.67924        -0.34045
C         28.29338        12.09838        -0.34557
C         29.51348         9.93609        -0.69425
C         29.61012        12.83342        -0.52323
C         28.29207        15.04400        -0.40442
C         28.10360        16.38876        -1.04943
C         29.47018        14.28037        -0.94819
C         29.21927        17.05309        -1.60969
C         27.85310        19.08371        -1.85754
C         29.09120        18.42495        -2.01588
C         30.77981         2.04481        -0.25908
C         30.79160         3.47653        -0.41300
C         31.96921         4.17857        -0.70288
C         30.76570         6.30121        -0.78823
C         30.70155         7.75701        -1.20837
C         31.94582         5.56450        -0.91158
C         31.97144         8.54732        -1.04772
C         30.68984        10.62481        -1.06109
C         30.53463        12.07057        -1.48570
C         31.93017         9.90849        -1.11385
C         31.80793        12.84051        -1.72378
C         30.54215        14.93537        -1.49624
C         30.46712        16.36788        -1.80493
C         31.77151        14.18452        -1.77249
C         31.54430        17.07427        -2.33922
C         30.22559        19.10235        -2.54484
C         31.42586        18.43644        -2.69011
O         10.34900         8.02843         2.51146
O         16.50953        10.63699        -0.56561
O          4.44707         9.22169         1.26890
O         12.95560        10.02214         2.73054
O         21.32901         3.79323        -1.03136
O         19.93382         9.52923        -0.71821
O         26.19842        11.43964         1.66806
O         17.79254         3.94758         2.28421
O         20.62586        17.00866         2.28734
O         17.85255        14.49409         2.88013
O         12.44932         5.41160         2.47040
H         12.28693         6.28723         2.88548
O         14.72235        13.96424        -0.29745
H         14.56234        14.81745        -0.75309
O         24.51886         5.48985        -1.55584
H         24.29892         4.54566        -1.76815
O         24.00316        16.57621        -2.22260
H         23.19957        17.08592        -2.46131
O         30.46517         7.69432        -2.67340
H         30.28574         8.61213        -2.97065
O         28.65812        15.32188         1.00344
H         29.13924        14.52524         1.33277
O          9.32418        16.60725        -1.03361
H          8.57958        16.57354        -1.68550
O          4.65914        17.16399         1.17813
H          3.79250        17.60778         1.29078
O          9.06868        16.87738         2.60997
H          9.67063        17.28724         3.26726
O         23.75547         7.48941         2.41585
H         23.43434         8.30339         2.87887
O          7.85559        12.65577        -1.67095
H          8.74241        13.06713        -1.77105
O         29.81564        12.03198        -2.76031
H         30.43207        11.69335        -3.44240
O         18.52449         7.46587        -1.36789
H         18.97605         8.24586        -1.77175
O          7.87955         7.39033         2.47492
H          8.67791         7.37464         3.05460
O         14.81651        12.96278         3.20994
H         14.62231        12.09733         3.62702
O         15.77613         7.88958        -1.55837
H         16.67783         7.66616        -1.90567
O          5.59270        14.85412         1.30841
H          6.08007        15.47048         1.89549
O         23.74151         2.97962        -1.23300
H         22.85715         2.85926        -1.65932
O          6.65706        16.49857        -1.86430
H          6.19770        15.75764        -2.34659
O         22.39961         9.81618         2.77537
H         22.53511        10.73278         3.10248
O         23.31917         2.38541         2.38520
H         23.29933         1.53072         2.86539
O          5.62407        14.15055        -2.30039
H          6.41583        13.54565        -2.29559
O         12.23909        18.70941         3.22140
H         13.06486        18.25382         3.52756
O         14.67782        17.29083         3.28709
H         15.55187        17.65865         3.53930
O         24.61997         4.58562         1.97973
H         24.41670         3.77007         2.49692
O         19.62327        12.50290         2.99125
H         18.97610        13.17027         3.34647
O          6.93147         3.83882         1.49804
H          7.45003         4.43020         2.08595
O         18.12244        10.20633         2.37310
H         18.63791        10.81987         2.95708
O         14.50002         5.55801        -1.34977
H         14.79583         6.43069        -1.72594
O         30.21025        12.87218         0.80853
H         30.20442        11.95814         1.16639
H          0.84030         1.80881        -3.19377
H          0.65576         4.17863        -2.55246
H          2.96399         0.55384        -2.81368
H          0.50578         5.96928        -1.96333
H          0.38780         8.34981        -1.51800
H          0.41449        10.23962        -1.54142
H          0.51321        12.64644        -1.79511
H          0.53056        14.55611        -1.85048
H          0.60767        17.01409        -1.93948
H          1.83900        19.14088        -1.64605
H          5.27167         0.49612        -2.00657
H          3.90795        20.38618        -1.17374
H          7.56014         0.40480        -1.18897
H          6.31496        20.36150        -0.36484
H          9.93927         0.33495        -0.63427
H          8.63855        20.33106         0.48268
H         12.32703         0.26579        -0.02645
H         10.99465        20.30372         1.11311
H         14.79856         0.26326         0.44729
H         13.40828        20.20654         0.85869
H         17.18622         0.27732         0.73282
H         15.86384        20.16729         0.51393
H         19.62331         0.21637         0.67671
H         18.26431        20.19050         0.22434
H         22.13828         0.21811         0.82384
H         20.73232        20.20254        -0.14840
H         24.75676         0.26401         0.81555
H         23.11549        20.20454        -0.61873
H         27.19312         0.27509         0.43341
H         25.46937        20.18538        -1.30238
H         29.62679         0.27300         0.08754
H         27.77057        20.14720        -2.12718
H         31.73192         1.50088        -0.34700
H         32.91689         3.63000        -0.80427
H         32.88209         6.06509        -1.19455
H         32.94394         8.03595        -1.05816
H         32.87263        10.47503        -1.15219
H         32.73880        12.30721        -1.96657
H         32.68955        14.73861        -2.01272
H         32.51157        16.58123        -2.50345
H         30.13225        20.15768        -2.83851
H         32.30047        18.96066        -3.10028
