         334
 CSIRO Nanostructure Databank - Neutral Graphene Oxide Data Set
C         30.40994        57.29988        -0.20657
C         30.44477        58.67667        -0.47381
C         29.28728        59.40006        -0.90000
C         30.47410        61.52345        -0.75887
C         29.32634        60.78784        -1.04787
C         32.81293        52.94520         0.07621
C         32.79129        54.37457         0.04203
C         31.63033        55.10736         0.17103
C         32.86706        57.26193        -0.28090
C         31.62903        56.60625         0.34577
C         32.87794        58.73386         0.03265
C         31.65471        59.42752        -0.24532
C         32.80246        61.56133         0.09470
C         31.66326        60.86108        -0.31256
C         35.23319        48.62018         0.29640
C         35.22530        50.03156         0.25047
C         34.01931        50.78313         0.16280
C         35.28935        52.89393         0.19516
C         34.01373        52.19284         0.10841
C         35.30108        54.30504         0.25677
C         34.10868        55.06287        -0.26468
C         35.21955        57.18193         0.54291
C         34.13053        56.53656         0.07417
C         35.23784        58.66081         0.88056
C         33.98348        59.39287         0.49334
C         35.25814        61.44862         0.10437
C         33.98835        60.88345         0.71000
C         37.71084        44.32210         0.37178
C         37.65213        45.73919         0.55495
C         36.45202        46.46002         0.41356
C         37.69790        48.58229         0.38043
C         36.43792        47.88042         0.39166
C         37.69530        49.99642         0.28229
C         36.48886        50.72885         0.27507
C         37.74121        52.88853         0.35757
C         36.50514        52.16542         0.28960
C         37.71176        54.30417         0.45735
C         36.49962        55.00331         0.48112
C         37.74387        57.22067         0.55580
C         36.48859        56.45120         0.91308
C         37.71817        58.63373         0.35057
C         36.48911        59.34169         0.33413
C         37.66567        61.41734        -0.55738
C         36.42729        60.72035        -0.01312
C         40.24396        40.18884        -0.44207
C         40.19847        41.57024        -0.25941
C         38.97674        42.25907        -0.09817
C         40.17932        44.30105         0.61072
C         38.92911        43.62752         0.27056
C         40.08814        45.67781         1.22703
C         38.88425        46.46283         0.74157
C         40.27151        48.47036         0.30692
C         38.91415        47.83504         0.54953
C         40.26865        49.98693         0.24552
C         38.96984        50.73707         0.16053
C         40.22917        52.85557         0.48396
C         38.98845        52.19520         0.36855
C         40.26954        54.33401         0.38060
C         38.95787        55.07140         0.32306
C         40.20219        57.22956         0.42117
C         38.95521        56.53491         0.48950
C         40.18587        58.63253         0.29149
C         38.96553        59.32225         0.13791
C         40.16653        61.35650        -0.52447
C         38.97452        60.71313        -0.25563
C         42.81869        36.09264        -1.32506
C         42.71908        37.24461        -0.35204
C         41.47888        38.08069        -0.51175
C         42.77145        40.23217        -0.59595
C         41.47497        39.44658        -0.50303
C         42.66910        41.50402         0.26118
C         41.49881        42.36912        -0.28174
C         42.63396        44.23475         1.03848
C         41.37919        43.65537         0.53139
C         42.63891        45.74808         1.43909
C         41.39068        46.42784         1.19024
C         42.66738        48.63565         1.34241
C         41.35207        47.87305         1.18191
C         42.67733        50.03178         0.90545
C         41.49717        50.72701         0.61241
C         42.67186        52.89904         0.95266
C         41.44911        52.15020         0.58148
C         42.67926        54.39564         1.11400
C         41.45999        55.12667         0.73089
C         42.71439        57.24110         0.52870
C         41.44992        56.50595         0.59025
C         42.71805        58.62095         0.23976
C         41.45848        59.42550         0.44386
C         42.64149        61.35067        -0.60578
C         41.44539        60.73555        -0.30666
C         45.29330        33.52208        -2.34600
C         44.09460        34.20109        -2.22353
C         45.20324        35.84255        -0.63219
C         43.99498        35.40800        -1.45003
C         45.23365        37.33811        -0.41995
C         44.00786        38.03995        -0.35615
C         45.21433        40.13619        -0.03376
C         44.00171        39.43055        -0.23919
C         45.21085        41.55684         0.19977
C         43.96776        42.28101         0.31375
C         45.14321        44.38743         0.86091
C         43.93369        43.62345         0.68076
C         45.15704        45.72398         1.24981
C         43.93237        46.48036         1.40198
C         45.18061        48.63712         1.34774
C         43.93948        47.87574         1.38167
C         45.20527        49.99510         1.12506
C         43.97103        50.70744         0.75630
C         45.22714        52.97311         0.80497
C         43.96702        52.20887         0.70956
C         45.19629        54.35784         0.72844
C         43.99978        55.15927         1.20873
C         45.16063        57.20737         0.37009
C         43.94313        56.54410         0.60993
C         45.16440        58.58821         0.01453
C         43.93457        59.29193        -0.03569
C         45.11573        61.35055        -0.67376
C         43.91853        60.69514        -0.42614
C         46.49649        34.05722        -1.83687
C         47.70566        35.96955        -0.90491
C         46.51195        35.28626        -1.15354
C         47.71841        37.32847        -0.47984
C         46.45272        38.02604        -0.31650
C         47.68562        40.14257         0.06623
C         46.45574        39.43510        -0.07393
C         47.68277        41.54715         0.28707
C         46.43214        42.23415         0.35497
C         47.71593        44.41685         0.61848
C         46.40313        43.70333         0.46845
C         47.72618        45.79850         1.10901
C         46.45834        46.37981         1.70121
C         47.73867        48.63533         1.35733
C         46.45608        47.90815         1.62475
C         47.64561        50.01619         0.73615
C         46.47483        50.81579         1.32666
C         47.64927        52.85923         0.47253
C         46.45517        52.22135         0.75468
C         47.58449        54.27235        -0.04353
C         46.40572        55.07636         0.45598
C         47.70068        57.20967         0.36456
C         46.40298        56.45493         0.36772
C         47.63097        58.59479        -0.22737
C         46.41197        59.27385        -0.26976
C         47.59335        61.37985        -0.72670
C         46.38671        60.68829        -0.57704
C         48.91624        38.03167        -0.33389
C         50.14864        40.12082         0.07476
C         48.93936        39.42944        -0.05251
C         50.19002        41.51626         0.38525
C         48.92966        42.24450         0.47778
C         50.17756        44.33070         0.91753
C         48.96173        43.63288         0.70494
C         50.19560        45.73765         0.94552
C         48.94806        46.46608         1.09533
C         50.17473        48.59040         0.82427
C         48.99979        47.89803         1.12961
C         50.14014        50.02253         0.61472
C         48.96473        50.74915         0.70515
C         50.11695        52.89814         0.28841
C         48.91880        52.17624         0.47889
C         50.12562        54.28547         0.01799
C         48.88282        55.02858         0.00531
C         50.07194        57.08077        -0.67388
C         48.87397        56.39147        -0.09962
C         50.08557        58.57488        -0.51346
C         48.86524        59.27694        -0.47093
C         50.07473        61.39648        -0.76401
C         48.85526        60.71520        -0.65241
C         51.39624        42.17353         0.58846
C         52.67920        44.34907         0.93119
C         51.43369        43.54944         1.18775
C         52.67882        45.70663         0.87815
C         51.43215        46.46529         0.89611
C         52.67076        48.59968         0.59375
C         51.43193        47.86837         0.76235
C         52.66490        49.99785         0.31854
C         51.36367        50.71966         0.05646
C         52.62747        52.90330         0.05729
C         51.41597        52.16893         0.56221
C         52.61524        54.27254        -0.08542
C         51.35942        55.00287        -0.09094
C         52.57568        57.10984        -0.45263
C         51.36243        56.38540        -0.33724
C         52.54224        58.52968        -0.55598
C         51.32618        59.25244        -0.59997
C         52.53170        61.38961        -0.91012
C         51.33456        60.71252        -0.72554
C         54.00743        46.43658         0.90217
C         55.11022        48.63822         0.52804
C         53.92382        47.92617         0.65857
C         55.11622        50.03837         0.27932
C         53.85911        50.69813         0.14170
C         55.11524        52.88616        -0.19872
C         53.83315        52.11420        -0.37757
C         55.10241        54.26966        -0.32420
C         53.84405        55.00291        -0.35239
C         55.07484        57.10772        -0.90120
C         53.82110        56.38280        -0.48210
C         55.08482        58.56372        -0.54266
C         53.80266        59.32102        -0.31049
C         55.07607        61.40299        -0.70412
C         53.82708        60.63905        -1.08322
C         56.33026        50.77140         0.17320
C         57.56770        52.90647         0.02219
C         56.35388        52.17061        -0.01470
C         57.58783        54.30456        -0.12141
C         56.34219        55.01713        -0.31653
C         57.55557        57.15421        -0.42976
C         56.34061        56.39781        -0.49565
C         57.52930        58.55286        -0.52001
C         56.27332        59.25690        -0.53285
C         57.48376        61.41268        -0.17142
C         56.24840        60.73223        -0.46603
C         58.79575        55.05080        -0.07010
C         60.00176        57.19846        -0.01723
C         58.80530        56.44598        -0.19620
C         60.01540        58.59286        -0.08513
C         58.81269        59.33186        -0.63696
C         59.89913        61.42964         0.23172
C         58.70055        60.75861        -0.14167
C         61.16036        59.34311         0.25044
C         61.09992        60.74157         0.37164
O         47.03999        44.33991        -0.71404
O         47.23006        48.49275         2.74541
O         41.78064        42.80501        -1.58082
O         41.71702        48.45741         2.47179
O         42.53054        53.50971         2.29463
O         39.74629        50.39657        -1.07010
O         42.56308        44.64984         2.43842
O         32.62534        57.12803        -1.74109
O         44.00947        51.44512        -0.54643
O         39.68809        54.73825        -0.92040
O         42.97581        40.57664        -1.97905
H         42.52048        41.46018        -2.14699
O         46.64196        51.03716         2.74438
H         46.79389        50.15684         3.17065
O         55.05758        57.09467        -2.38536
H         54.52801        57.87080        -2.67705
O         47.33751        54.13321        -1.49806
H         46.60473        53.48969        -1.61342
O         49.92819        56.89332        -2.14475
H         49.72790        55.94419        -2.29977
O         33.81944        57.60433        -2.41486
H         34.32638        56.75635        -2.53227
O         34.26803        54.98215        -1.72846
H         34.11151        54.04838        -1.98689
O         33.98027        61.17382         2.14758
H         34.51681        60.46613         2.58018
O         51.16635        50.74206        -1.38452
H         52.00565        51.08077        -1.79071
O         37.53267        61.55238        -1.98736
H         37.47602        60.65452        -2.37446
O         42.59798        36.63211         0.97452
H         43.42182        36.10109         1.12378
O         51.55027        52.08419         2.01746
H         51.53551        52.99687         2.37478
O         54.93041        45.83797        -0.02060
H         54.59292        45.98518        -0.92774
O         53.76644        59.68194         1.10537
H         53.71636        58.85486         1.62851
O         59.06698        59.45604        -2.08496
H         59.10559        58.54682        -2.45123
O         39.85158        45.46631         2.67099
H         40.67600        45.06035         3.03280
O         40.67285        48.00718        -1.01717
H         40.24824        48.61456        -1.66820
O         35.34948        58.78946         2.33736
H         35.99365        58.09692         2.63954
O         47.99159        57.44849         1.80079
H         47.16057        57.75917         2.22065
O         42.36819        41.07763         1.60855
H         42.40700        41.85763         2.20161
O         47.29367        49.80716        -0.66335
H         48.11463        49.63478        -1.17191
O         31.70282        56.87940         1.78542
H         30.87412        56.55490         2.19552
O         45.01848        35.24018         0.70293
H         45.01444        34.26647         0.58193
O         46.53997        46.01957         3.11809
H         47.04483        46.74168         3.56146
O         53.93156        60.27379        -2.50038
H         53.96979        61.10152        -3.02402
O         44.25723        55.39465         2.62786
H         43.89751        54.61190         3.10827
O         51.44276        43.30641         2.66121
H         50.64409        42.77466         2.86788
O         53.65604        51.95480        -1.85477
H         53.73772        52.84899        -2.25355
O         41.48002        59.80731         1.87197
H         42.28161        60.35524         2.01274
O         36.51360        56.37907         2.39531
H         35.74686        55.83410         2.67619
H         29.46868        56.74284        -0.33317
H         28.35643        58.85139        -1.10191
H         30.46927        62.61879        -0.84749
H         28.42109        61.31566        -1.38080
H         31.85486        52.40945         0.16047
H         30.67734        54.57399         0.32459
H         32.79689        62.66203         0.06505
H         34.27612        48.07778         0.26860
H         33.06056        50.24366         0.13744
H         35.25014        62.49810        -0.22909
H         36.77292        43.78000         0.17432
H         35.50476        45.91334         0.29134
H         37.70576        62.46071        -0.15159
H         39.29920        39.61832        -0.42271
H         38.02845        41.72167        -0.26380
H         40.14518        62.37576        -0.94042
H         41.91154        35.72742        -1.83219
H         40.51865        37.53867        -0.48685
H         42.63849        62.36513        -1.03483
H         45.33039        32.58893        -2.92560
H         43.19284        33.82430        -2.72784
H         45.09967        62.41334        -0.95998
H         47.45052        33.56998        -2.08729
H         48.66152        35.49252        -1.17320
H         47.57469        62.46724        -0.89573
H         49.87245        37.50248        -0.46312
H         51.09744        39.57271        -0.02519
H         50.07206        62.48636        -0.91782
H         52.33771        41.60765         0.51687
H         53.64151        43.81415         0.93389
H         52.51756        62.47670        -1.09064
H         54.45371        46.28365         1.92442
H         56.06729        48.10020         0.59517
H         55.05880        62.50441        -0.69540
H         57.28303        50.23600         0.30132
H         58.51440        52.36717         0.17722
H         57.44673        62.49305         0.04115
H         59.74520        54.51935         0.09525
H         60.92051        56.66575         0.27437
H         59.85354        62.50243         0.47185
H         62.09467        58.81680         0.49691
H         62.00501        61.29138         0.66655
