         640
 CSIRO Nanostructure Databank - Neutral Graphene Oxide Data Set
C         23.17936        27.84967        -2.20011
C         23.14921        29.15497        -1.77073
C         23.08185        31.87094        -0.69572
C         23.05173        33.16779        -0.23771
C         23.02926        35.94685         0.71609
C         22.99964        37.30450         1.05895
C         22.96183        40.25430         1.46401
C         22.94899        41.63966         1.47602
C         22.93044        44.59094         1.55836
C         22.94452        45.96653         1.50245
C         25.63225        25.06664        -2.63262
C         24.44507        25.76679        -2.64085
C         25.61277        27.78370        -1.87029
C         24.40537        27.12843        -2.24214
C         25.58406        29.15140        -1.46402
C         24.34038        29.83648        -1.38176
C         25.53176        31.87588        -0.61151
C         24.31148        31.19333        -0.90557
C         25.50427        33.23688        -0.19167
C         24.25044        33.89224        -0.00092
C         25.47610        36.02935         0.35683
C         24.20875        35.27528         0.37700
C         25.44991        37.48306         0.70012
C         24.15244        38.10943         1.05772
C         25.41591        40.24761         0.92113
C         24.14148        39.50944         1.24978
C         25.40566        41.70231         1.30418
C         24.14439        42.41687         1.40764
C         25.43640        44.54409         1.82253
C         24.12908        43.82215         1.54843
C         25.40888        46.01425         1.45426
C         24.17663        46.70165         1.37391
C         25.38380        48.77292         0.94488
C         24.18891        48.09542         1.13512
C         28.14766        23.56622        -2.49979
C         28.08622        24.93845        -2.14585
C         26.85077        25.68286        -2.23706
C         28.06099        27.72360        -1.52458
C         26.84487        27.05911        -1.87842
C         28.04815        29.10926        -1.18575
C         26.80714        29.82098        -1.12976
C         28.00927        31.85148        -0.41554
C         26.78465        31.18349        -0.73223
C         27.98189        33.21407         0.01258
C         26.74532        33.92154         0.10199
C         27.93869        35.94619         0.87983
C         26.74814        35.28793         0.46131
C         27.93171        37.36539         1.27527
C         26.70040        38.13720         1.15932
C         27.85803        40.24053         1.67859
C         26.67015        39.50493         1.34772
C         27.84657        41.62804         1.58410
C         26.61808        42.35498         1.37278
C         27.92052        44.53752         1.46961
C         26.62009        43.84698         1.14755
C         27.88694        45.99489         1.52412
C         26.61508        46.71345         1.29704
C         27.89082        48.78740         0.70260
C         26.62880        48.10287         1.00763
C         27.89988        50.13699         0.29056
C         30.53838        23.42986        -2.02512
C         29.35381        22.85931        -2.48686
C         30.48343        24.77830        -1.35742
C         29.27200        25.59655        -1.72487
C         30.52186        27.67166        -1.19250
C         29.28370        26.98657        -1.47366
C         30.51666        29.06131        -0.93901
C         29.27144        29.77999        -0.88867
C         30.47731        31.84069        -0.22151
C         29.25083        31.15694        -0.52659
C         30.42411        33.15387         0.27787
C         29.19384        33.87016         0.39008
C         30.36427        35.82459         1.45748
C         29.14431        35.21285         0.88200
C         30.33074        37.25621         1.93306
C         29.07784        38.00955         1.70646
C         30.38278        40.16083         1.78370
C         29.07546        39.46576         2.15827
C         30.38619        41.63884         1.84705
C         29.08791        42.40130         1.82941
C         30.38616        44.53127         1.33441
C         29.11884        43.86052         1.54983
C         30.40426        45.91603         1.01221
C         29.20550        46.72812         1.24588
C         30.32975        48.71652         0.27412
C         29.13115        48.09760         0.71780
C         30.30843        50.08617        -0.10456
C         29.07794        50.77101        -0.07808
C         33.04638        20.64180        -2.29448
C         31.83791        21.33268        -2.30153
C         33.00669        23.40195        -1.73001
C         31.78718        22.70992        -2.01381
C         32.99587        24.83093        -1.50973
C         31.77873        25.54401        -1.42935
C         33.00390        27.65949        -1.13962
C         31.76725        26.94533        -1.24757
C         32.99442        29.07064        -0.90563
C         31.75644        29.77083        -0.75045
C         32.97050        31.90009        -0.37595
C         31.74571        31.15571        -0.42557
C         32.87960        33.27231         0.03222
C         31.69616        33.73378         0.83974
C         32.81289        35.97978         1.13026
C         31.66263        35.23408         1.06984
C         32.93971        37.25359         1.94675
C         31.61584        38.05766         2.22983
C         32.82448        40.21809         1.51212
C         31.57103        39.48172         1.67693
C         32.82109        41.60856         1.38047
C         31.60892        42.36807         1.46361
C         32.75035        44.34071         0.45862
C         31.58492        43.74020         1.22209
C         32.87890        45.86172         0.65885
C         31.56879        46.59671         0.54786
C         32.81246        48.63589        -0.13668
C         31.56804        47.96206         0.24457
C         32.77838        50.05649        -0.45670
C         31.54985        50.76230        -0.47175
C         32.73185        52.78184        -1.17095
C         31.54955        52.12345        -0.83608
C         35.47789        19.08535        -1.83728
C         35.57071        20.55818        -2.13871
C         34.24928        21.29230        -2.00329
C         35.47533        23.39727        -1.49874
C         34.23763        22.69055        -1.74195
C         35.46877        24.80271        -1.34841
C         34.23417        25.53098        -1.38033
C         35.48751        27.65275        -1.14584
C         34.23598        26.94414        -1.21467
C         35.45265        29.07239        -0.97704
C         34.23776        29.77430        -0.80309
C         35.48075        31.82159        -0.28400
C         34.23481        31.21102        -0.56427
C         35.68295        33.23492        -0.24644
C         33.88800        34.21524        -0.14111
C         35.31545        36.00544         0.82184
C         34.03792        35.40516         0.62000
C         35.32579        37.39114         1.19134
C         34.10671        38.09324         1.46376
C         35.31957        40.21599         1.23486
C         34.07993        39.48936         1.43477
C         35.33534        41.60938         1.15699
C         34.10334        42.39233         1.48487
C         35.27712        44.42490         0.66126
C         34.08284        43.73219         0.80905
C         35.31948        45.82276         0.24618
C         34.00614        46.43150        -0.20710
C         35.26090        48.55046        -0.78108
C         33.99952        47.93667        -0.23523
C         35.24383        50.04489        -0.76562
C         33.99407        50.73856        -0.78834
C         35.21769        52.79775        -1.62395
C         33.95984        52.12081        -1.12972
C         35.26053        54.28586        -1.40370
C         37.62961        19.07888        -0.63534
C         36.42655        18.41262        -1.17509
C         37.79085        20.52332        -0.90844
C         36.69512        21.24705        -1.39754
C         37.90006        23.35325        -0.97160
C         36.69626        22.66509        -1.32828
C         37.91937        24.77395        -0.97469
C         36.70917        25.51071        -1.17452
C         38.04720        27.61852        -1.37968
C         36.71218        26.93014        -1.16603
C         38.05292        29.09194        -0.95708
C         36.73484        29.79700        -0.85322
C         37.86471        31.68802         0.32595
C         36.71286        31.08877        -0.16171
C         37.71206        32.96897         1.12388
C         36.65754        33.87275         0.49656
C         37.76956        35.95882         1.12482
C         36.57571        35.28561         0.76898
C         37.79685        37.37084         1.17457
C         36.56101        38.09256         1.17253
C         37.80907        40.20412         1.16739
C         36.57044        39.50767         1.19821
C         37.82087        41.63018         1.04275
C         36.55352        42.34075         1.01373
C         37.79705        44.50441         1.10018
C         36.52188        43.73381         0.89083
C         37.77175        45.93103         0.59482
C         36.49876        46.55198         0.22435
C         37.68618        48.68223        -0.15936
C         36.51850        47.94344        -0.19056
C         37.71230        50.06321        -0.57520
C         36.47422        50.74708        -0.85329
C         37.70707        52.84331        -1.19348
C         36.48433        52.13252        -1.14403
C         37.70790        54.25403        -1.42886
C         36.43981        54.94919        -1.40041
C         40.11675        16.13351        -0.43854
C         38.92707        16.82422        -0.45882
C         40.15339        19.02111        -0.22211
C         38.87585        18.28152        -0.26879
C         40.21069        20.39926        -0.30069
C         39.01539        21.18441        -0.59042
C         40.32350        23.28563        -0.42358
C         39.07929        22.59411        -0.67201
C         40.36366        24.69049        -0.46379
C         39.16888        25.47262        -0.74071
C         40.53129        27.60064        -0.83920
C         39.22550        26.85205        -0.83954
C         40.43511        28.98549        -0.20862
C         39.20938        29.69605        -0.25119
C         40.33233        31.68018         0.72101
C         39.13307        31.00843         0.27894
C         40.32552        33.04693         1.13782
C         39.02532        33.71707         1.37757
C         40.30443        35.95248         1.41752
C         39.01948        35.21895         1.40584
C         40.26996        37.34081         1.40231
C         39.03618        38.06904         1.26550
C         40.28143        40.21664         1.24181
C         39.04275        39.49063         1.23534
C         40.27287        41.62493         1.03134
C         39.03066        42.31361         0.91292
C         40.29179        44.49306         0.83347
C         39.00966        43.77208         0.52968
C         40.24865        45.99360         1.02446
C         38.94618        46.62161         0.56693
C         40.21498        48.71767        -0.09810
C         38.94331        48.12513         0.46499
C         40.19962        50.04555        -0.51686
C         38.93908        50.75503        -0.67673
C         40.17834        52.83566        -1.17594
C         38.94664        52.14101        -1.00900
C         40.17429        54.22170        -1.49899
C         38.93963        54.94329        -1.61832
C         40.18201        56.95213        -2.25181
C         38.98183        56.32030        -1.97840
C         42.56295        16.03999        -0.02573
C         41.35467        16.77206        -0.18949
C         42.65989        18.91247        -0.21860
C         41.37311        18.23294         0.18494
C         42.69774        20.38412        -0.07312
C         41.49441        21.09816        -0.16704
C         42.77084        23.19807        -0.06105
C         41.52452        22.52839        -0.19872
C         42.80175        24.62675        -0.03738
C         41.60621        25.37268        -0.24377
C         42.86342        27.44139         0.03554
C         41.67128        26.78608        -0.28573
C         42.90906        28.94638        -0.07026
C         41.59670        29.62918         0.21237
C         42.77110        31.69746         1.01520
C         41.57843        30.99570         0.64348
C         42.75848        33.04545         1.36932
C         41.52232        33.75600         1.38002
C         42.73598        35.88321         1.83869
C         41.54165        35.21240         1.59603
C         42.73089        37.33606         2.12927
C         41.46236        38.10322         1.82354
C         42.72079        40.25090         1.52661
C         41.51197        39.55150         1.51497
C         42.73176        41.64134         1.15375
C         41.50813        42.33451         0.96255
C         42.74365        44.47610         0.70970
C         41.49816        43.78746         0.83640
C         42.78814        45.98671         0.75810
C         41.47686        46.66267         0.43911
C         42.69308        48.65174        -0.37605
C         41.45355        47.98066        -0.00440
C         42.67933        50.02761        -0.70702
C         41.43612        50.74185        -0.78099
C         42.65733        52.83828        -1.25423
C         41.42143        52.12328        -1.07882
C         42.64764        54.21687        -1.51490
C         41.41308        54.90776        -1.69253
C         42.65669        56.88983        -2.50608
C         41.40812        56.26698        -2.11907
C         43.77861        16.66377         0.12670
C         45.21588        18.80874         0.20617
C         43.91869        18.10650        -0.15287
C         45.19221        20.30762        -0.02180
C         43.97139        21.03760        -0.01999
C         45.24595        23.15408         0.07279
C         43.99662        22.46683         0.01243
C         45.27617        24.57288         0.18777
C         44.03444        25.30657         0.16700
C         45.30483        27.37049         0.76923
C         44.04168        26.71118         0.27858
C         45.34070        28.84667         0.55190
C         44.04733        29.51359         0.73269
C         45.32059        31.66733         1.06595
C         44.03900        30.94131         1.13920
C         45.29188        33.07141         1.27921
C         44.04904        33.64129         1.92149
C         45.29165        35.93377         1.76101
C         44.03140        35.17996         2.21335
C         45.28626        37.36297         1.80075
C         44.05674        38.08710         2.35024
C         45.26003        40.32100         1.63367
C         43.98472        39.59526         1.97649
C         45.21763        41.68055         1.03453
C         43.96472        42.34653         0.92583
C         45.16677        44.40845         0.23263
C         43.94549        43.74676         0.62484
C         45.11727        45.77278        -0.16309
C         43.95749        46.55901         0.00229
C         45.13607        48.56595        -0.83459
C         43.92092        47.91121        -0.40807
C         45.14604        49.97331        -1.05720
C         43.90931        50.72686        -0.97408
C         45.12719        52.82686        -1.48709
C         43.90331        52.11452        -1.20339
C         45.15668        54.18653        -1.69079
C         43.92391        55.02479        -1.45965
C         43.84316        56.27921        -2.29363
C         47.58388        18.85094        -0.55008
C         46.42820        18.16537        -0.41508
C         47.66504        20.27230        -0.26849
C         46.43387        20.99170        -0.09231
C         47.71458        23.11400        -0.05471
C         46.46855        22.42304        -0.01905
C         47.74412        24.54208         0.03038
C         46.51936        25.26257         0.18977
C         47.75188        27.39829         0.22381
C         46.56165        26.67819         0.33883
C         47.76288        28.84009         0.37034
C         46.52044        29.55082         0.57844
C         47.73928        31.71849         0.59763
C         46.51345        30.99765         0.73004
C         47.73049        33.14242         0.84976
C         46.50564        33.80730         1.21461
C         47.77642        35.88758         1.60149
C         46.47944        35.21339         1.49451
C         47.76395        37.42583         1.64540
C         46.46876        38.10988         1.59603
C         47.70270        40.22955         1.24530
C         46.51434        39.54078         1.47488
C         47.70680        41.74321         1.30923
C         46.41762        42.35515         0.80156
C         47.64074        44.33708        -0.01273
C         46.41154        43.69596         0.29579
C         47.63429        45.62128        -0.70840
C         46.28970        46.37604        -0.80519
C         47.56551        48.47102        -1.28219
C         46.33921        47.83268        -0.97051
C         47.55752        49.87288        -1.52603
C         46.35576        50.60417        -1.40158
C         47.43335        52.60867        -2.47358
C         46.45466        52.10807        -1.41240
C         47.50162        54.12065        -2.39822
C         46.41837        54.83134        -2.01815
C         50.15570        20.26759        -0.36077
C         48.90358        20.96107        -0.27233
C         50.18132        23.09578        -0.19811
C         48.93784        22.39176        -0.16707
C         50.19976        24.52848        -0.15939
C         48.97260        25.24545        -0.03771
C         50.18729        27.38576        -0.19074
C         48.99109        26.68590        -0.00764
C         50.13865        28.86047        -0.27973
C         48.93379        29.57548         0.19229
C         50.19444        31.70797         0.18674
C         48.94188        31.00850         0.28440
C         50.18001        33.22561         0.16625
C         48.94416        33.86553         0.76450
C         50.21879        35.96589         1.11754
C         49.00714        35.22492         1.13725
C         50.21188        37.41099         1.19974
C         48.98705        38.13355         1.26418
C         50.18704        40.24588         0.94136
C         48.95979        39.53434         1.12370
C         50.18421        41.67070         0.75570
C         48.95059        42.38309         0.74286
C         50.11337        44.42899        -0.01321
C         48.90626        43.72403         0.26504
C         50.10827        45.76061        -0.51514
C         48.87314        46.40218        -0.81894
C         50.05573        48.46860        -1.40294
C         48.82984        47.76010        -1.20719
C         50.02753        49.85111        -1.79367
C         48.79030        50.55508        -1.87527
C         49.96550        52.52315        -2.67674
C         48.76787        51.90316        -2.30745
C         51.34828        20.93779        -0.34675
C         52.64313        23.07722        -0.27263
C         51.40933        22.36858        -0.27608
C         52.63596        24.49364        -0.26392
C         51.43721        25.23561        -0.23189
C         52.65528        27.41209        -0.31918
C         51.45560        26.69832        -0.27575
C         52.73895        28.89476        -0.64796
C         51.41944        29.63799        -0.43546
C         52.68079        31.73924         0.11473
C         51.40476        31.04479         0.00986
C         52.68644        33.10326         0.32275
C         51.43355        33.78360         0.82459
C         52.65761        35.98480         0.85769
C         51.46807        35.29570         0.84722
C         52.70210        37.39548         1.38752
C         51.42399        38.13414         1.12601
C         52.66615        40.25416         0.83069
C         51.42399        39.54169         0.97898
C         52.64750        41.65319         0.59844
C         51.41097        42.34909         0.55048
C         52.64054        44.45902        -0.08748
C         51.40110        43.85449         0.51617
C         52.60357        45.77379        -0.59304
C         51.33975        46.45872        -0.76236
C         52.54329        48.48418        -1.52774
C         51.30734        47.79224        -1.23891
C         52.51300        49.84569        -1.93716
C         51.24246        50.53376        -2.09097
C         51.18321        51.86113        -2.54816
C         55.10269        23.00670        -0.09684
C         53.92284        22.38076        -0.30901
C         55.12963        24.46245         0.17355
C         53.93171        25.20412        -0.33695
C         55.18990        27.43233         0.02233
C         53.94849        26.70422        -0.36404
C         55.16663        28.86558         0.09716
C         53.95107        29.59866        -0.06681
C         55.16934        31.70636         0.30631
C         53.93501        30.99372         0.07445
C         55.19839        33.12343         0.35819
C         53.94004        33.85130         0.21070
C         55.20417        36.00602         0.81966
C         53.93353        35.35458         0.47971
C         55.17866        37.44453         0.99314
C         53.95097        38.14216         1.01461
C         55.14681        40.26128         0.71041
C         53.92043        39.54689         0.86784
C         55.12126        41.67475         0.46546
C         53.88956        42.36270         0.38880
C         55.08599        44.40762        -0.32347
C         53.86370        43.75059         0.01325
C         55.04317        45.72904        -0.83801
C         53.82240        46.42070        -0.98136
C         54.99414        48.50829        -1.70289
C         53.79362        47.80298        -1.42494
C         54.94111        49.86664        -2.04914
C         53.72596        50.52149        -2.17334
C         57.69735        24.56832         0.42298
C         56.39007        25.24863         0.41053
C         57.61265        27.43178         0.43806
C         56.37534        26.72974         0.24773
C         57.61692        28.85448         0.48944
C         56.38688        29.56557         0.35962
C         57.62478        31.70602         0.54571
C         56.39143        30.98904         0.41511
C         57.62698        33.12831         0.51531
C         56.41612        33.84556         0.48329
C         57.65816        35.98026         0.85715
C         56.41375        35.29746         0.68922
C         57.66489        37.42549         1.30978
C         56.39759        38.17078         0.99170
C         57.63690        40.30515         0.74950
C         56.38893        39.56817         0.82578
C         57.61541        41.70285         0.48133
C         56.35982        42.38275         0.28318
C         57.58424        44.44572        -0.29572
C         56.34130        43.73283        -0.12243
C         57.57517        45.77255        -0.79289
C         56.30894        46.35182        -1.26777
C         57.56592        48.55180        -1.55483
C         56.30108        47.80868        -1.69893
C         58.84899        25.27623         0.49566
C         60.04381        27.43162         0.74482
C         58.83995        26.71878         0.56170
C         60.04985        28.81301         0.82437
C         58.84729        29.56178         0.70416
C         60.02269        31.74438         1.11859
C         58.84353        30.98906         0.75459
C         60.06407        33.09423         1.02103
C         58.94312        33.84613         0.35057
C         60.08741        36.04662         0.72004
C         58.88805        35.31490         0.71153
C         60.09230        37.45310         0.77238
C         58.91844        38.17748         0.94183
C         60.07906        40.37345         0.80707
C         58.87987        39.61811         0.85486
C         60.05860        41.73658         0.59525
C         58.84063        42.42645         0.38066
C         60.01752        44.58666        -0.10107
C         58.82513        43.82473         0.01536
C         59.98965        45.90255        -0.51947
C         58.76775        46.51540        -0.89158
C         58.72443        47.91764        -1.25010
O         44.69985        40.37625         2.99089
O         38.94469        34.40062         2.67058
O         41.80417        37.72550         3.20106
O         43.85593        29.84846         2.14816
O         34.87543        33.99018        -1.11120
O         43.31206        18.46280        -1.44936
O         25.51518        37.07443        -0.72517
O         54.15120        25.89703        -1.60741
O         50.54817        29.40918        -1.60568
O         53.93018        34.82792        -0.90149
O         56.34836        46.72568        -2.69329
O         47.94841        36.61376         2.85729
O         46.81916        45.61991        -1.93708
O         28.67337        46.58064         2.60876
O         30.20748        36.13769         2.89684
O         37.90596        18.72389         0.76462
O         37.56739        29.91129        -2.08993
O         55.50624        24.81530         1.54636
O         29.75357        42.09996         3.10389
O         44.41820        32.96045         3.12241
O         44.29013        38.06432         3.77455
H         44.21806        37.11984         4.06347
O         38.86100        43.81740        -0.93147
H         39.59782        43.30452        -1.32555
O         37.19804        32.54532         2.41622
H         37.50729        33.21936         3.06821
O         46.90612        52.24119        -3.77619
H         47.55106        52.52385        -4.45699
O         30.30704        24.47312         0.09032
H         29.46877        23.96985         0.17451
O         33.31898        46.07382         2.02888
H         32.64789        45.68550         2.63016
O         41.38038        18.26543         1.65599
H         40.48897        17.99390         1.96347
O         26.42295        44.03300        -0.29139
H         26.81296        43.26694        -0.76269
O         59.23857        33.81737        -1.09340
H         59.21690        32.87856        -1.37700
O         31.56902        38.32225         3.66044
H         32.29060        37.78289         4.07433
O         40.33707        46.24366         2.47912
H         39.99128        47.16336         2.61278
O         37.97749        44.55567         2.54355
H         37.12446        44.81495         2.95069
O         43.23131        29.25564        -1.46239
H         42.52021        28.84150        -2.01453
O         28.99686        39.42298         3.60915
H         29.85052        39.04277         3.93469
O         45.26465        27.24047         2.24440
H         44.73321        27.99397         2.59324
O         35.93069        20.65203        -3.56178
H         35.99022        21.60452        -3.78803
O         57.69447        37.35803         2.79850
H         58.53554        36.91726         3.04632
O         51.43411        44.26985         1.94415
H         50.66141        43.85169         2.38379
O         35.19835        52.60391        -3.09525
H         36.00791        53.03154        -3.44852
O         52.78372        37.25083         2.86389
H         51.87844        37.05546         3.19008
O         25.65901        44.45272         3.25697
H         24.96005        44.96943         3.70886
O         32.42699        43.98285        -0.91220
H         32.99166        44.53015        -1.51278
O         33.82519        46.04593        -1.60618
H         34.44845        46.61922        -2.13010
O         33.39868        36.72005         3.23739
H         32.94474        35.86260         3.38953
O         31.84265        33.16544         2.19322
H         31.05567        33.44073         2.71132
O         44.05519        35.32213         3.66334
H         44.28103        34.40412         3.99832
O         25.48256        40.27692        -0.55790
H         25.45971        39.34473        -0.87276
O         53.00637        28.90907        -2.08293
H         52.12909        28.83492        -2.52816
O         35.31008        48.17552        -2.24315
H         34.77803        48.84547        -2.72626
O         40.88892        27.84379        -2.25550
H         40.03670        27.82893        -2.76998
O         44.03962        55.49446        -0.05980
H         43.24031        56.03161         0.12816
O         43.04609        46.30041         2.18057
H         42.17835        46.17890         2.64826
O         50.21768        33.60627        -1.23677
H         49.55418        33.07112        -1.71987
O         34.22321        42.70512         2.93623
H         34.21640        41.85013         3.41873
O         45.33903        18.61327         1.65574
H         46.16126        19.06109         1.94729
O         47.73284        42.08779         2.74671
H         46.96646        41.64136         3.17120
O         38.92924        48.57957         1.88846
H         38.02236        48.42371         2.23138
O         38.24451        27.61190        -2.84721
H         37.79994        28.43601        -3.17102
O         51.34123        33.39449         2.23236
H         52.04738        33.85672         2.73071
O         47.04485        52.47041        -0.12645
H         46.37181        52.31963         0.56961
H         22.25088        27.34408        -2.50207
H         22.18399        29.67703        -1.74207
H         22.12957        31.36046        -0.88781
H         22.07920        33.65513        -0.09046
H         22.07653        35.40022         0.72876
H         22.02886        37.75200         1.31285
H         22.00932        39.72375         1.60701
H         21.98412        42.14495         1.61789
H         21.95713        44.07962         1.53768
H         21.99611        46.52208         1.47119
H         25.62131        24.00991        -2.93010
H         23.51192        25.26902        -2.94131
H         25.34483        49.85212         0.74648
H         23.23566        48.64104         1.08405
H         27.25049        23.04894        -2.86197
H         26.96817        50.71666         0.26467
H         29.35156        21.83480        -2.88414
H         29.02533        51.82941        -0.36385
H         33.03528        19.57034        -2.53230
H         30.91751        20.77707        -2.52342
H         32.67452        53.83284        -1.48389
H         30.61072        52.68975        -0.87841
H         34.61420        18.53085        -2.23079
H         34.32315        54.85790        -1.36505
H         36.29724        17.33876        -0.97666
H         36.43706        56.04614        -1.32695
H         40.11014        15.04510        -0.60303
H         37.98459        16.27469        -0.58398
H         40.18728        58.00167        -2.57998
H         38.04673        56.88488        -2.09027
H         42.50789        14.94048         0.01012
H         42.61206        57.86111        -3.02204
H         44.67686        16.07650         0.36561
H         44.77202        56.77231        -2.61314
H         48.47311        18.33315        -0.93670
H         46.38884        17.09396        -0.66072
H         48.41072        54.65274        -2.71411
H         46.47445        55.92915        -1.99138
H         50.16662        19.17080        -0.41634
H         49.96763        53.55390        -3.05646
H         52.27739        20.35509        -0.39818
H         52.09760        52.40196        -2.82233
H         56.03704        22.42825        -0.07271
H         53.92881        21.29573        -0.48007
H         55.86546        50.41856        -2.26411
H         53.73122        51.57727        -2.47087
H         57.72071        23.46991         0.42753
H         57.56917        49.64204        -1.69419
H         59.81900        24.75895         0.53373
H         60.98747        26.87367         0.82994
H         61.00717        29.33239         0.96373
H         60.89104        31.20978         1.52951
H         60.97243        33.63376         1.32555
H         61.04151        35.52782         0.55665
H         61.04761        37.96889         0.60343
H         61.04805        39.87529         0.94319
H         61.01340        42.27702         0.56238
H         60.98608        44.13571         0.15163
H         60.92269        46.48047        -0.58413
H         59.66143        48.49074        -1.18565
