         300
 CSIRO Nanostructure Databank - Neutral Graphene Oxide Data Set
C         30.22296        31.91506         0.91303
C         30.30733        33.12922         1.10077
C         30.81934        36.41183         2.09219
C         30.95111        37.55347         2.54830
C         30.51943        40.18675         1.05974
C         30.24454        41.23319         0.45148
C         32.69325        29.19081         0.76363
C         31.62641        29.76680         0.98176
C         32.51007        31.82167        -0.14377
C         30.96798        30.85024         0.23736
C         32.61483        33.26310         0.27842
C         31.53772        33.93772         1.17233
C         33.00074        36.03591         1.10654
C         31.72844        35.37459         1.55044
C         33.05431        37.30761         0.57580
C         31.83337        38.69459         2.56600
C         32.86528        40.27657         0.80778
C         31.74719        39.67922         1.58712
C         32.68404        41.37970        -0.01298
C         31.26562        41.93239        -0.39491
C         32.40614        44.00182        -0.69176
C         31.39750        43.43684        -0.26463
C         35.55973        27.75956         0.76614
C         35.10184        28.75941        -0.21752
C         33.80570        29.49662        -0.13320
C         35.10099        31.63666        -0.21684
C         33.74459        30.99722        -0.63132
C         35.18083        33.10486         0.05125
C         33.95630        34.02054         0.08400
C         35.50695        35.92225         0.82574
C         34.21787        35.15032         1.16973
C         35.52372        37.44258         0.90902
C         34.22977        38.16749         0.75053
C         35.39367        40.41807         0.79995
C         34.15280        39.54327         0.77956
C         35.24522        41.58932        -0.19524
C         33.88528        42.06783        -0.62893
C         34.67196        44.55783        -1.27386
C         33.65402        43.49946        -1.36518
C         35.40978        45.39180        -0.70734
C         37.87629        27.52581         0.16809
C         36.75704        27.56011         1.06214
C         37.64662        28.55329        -0.97636
C         36.36407        29.43220        -0.77841
C         37.71217        31.48497        -0.17211
C         36.37953        30.92428        -0.67124
C         37.73486        33.02059        -0.10992
C         36.46379        33.80086        -0.40911
C         37.83639        35.97916        -0.30041
C         36.62526        35.21764         0.13312
C         37.73371        37.47460        -0.42762
C         36.78378        38.17818         0.55656
C         37.85957        40.40057        -0.20839
C         36.72600        39.68715         0.46353
C         37.74150        41.81060        -0.76863
C         36.47430        42.45307        -0.21936
C         37.68889        44.47711         0.62030
C         36.52768        43.55813         0.57693
C         37.52428        46.02005         0.31889
C         36.48180        46.26121        -0.65064
C         40.40729        24.88651         1.15010
C         39.45881        25.58775         0.78022
C         40.38320        27.33506        -1.45860
C         38.76272        26.50629        -0.06183
C         40.28567        28.68654        -1.30641
C         38.94181        29.44571        -1.33973
C         40.16016        31.52571        -0.61056
C         38.98471        30.84316        -0.73280
C         40.20252        33.03220        -0.69576
C         38.99122        33.80164        -0.30173
C         40.32859        35.96600        -0.16289
C         38.99541        35.29547        -0.47775
C         40.36080        37.47164        -0.38826
C         39.08200        38.17785        -0.63605
C         40.37029        40.42366        -0.45762
C         39.09551        39.67458        -0.67143
C         40.32986        41.79815        -0.32748
C         39.05030        42.56766        -0.43403
C         40.26993        44.68312         0.57974
C         39.01879        43.95022         0.15799
C         40.18799        46.18623         0.35932
C         38.80117        46.81392         0.22870
C         39.91177        48.72837        -0.72820
C         38.88910        48.04656        -0.57803
C         42.79157        24.73767         0.84626
C         41.64524        24.29503         1.52946
C         42.86846        27.27943        -1.12416
C         41.64126        26.56465        -1.49550
C         42.97681        28.75896        -1.40575
C         41.57114        29.46184        -1.35343
C         42.65672        31.54421        -0.26174
C         41.47849        30.88394        -0.91640
C         42.67658        33.04160        -0.33368
C         41.48834        33.78620        -0.85867
C         42.85276        35.94040        -0.24105
C         41.54494        35.32909        -0.85851
C         42.83996        37.42505        -0.60067
C         41.54641        38.16690        -0.39463
C         42.81711        40.29222        -0.25366
C         41.60656        39.63962        -0.41112
C         42.86539        41.76917        -0.16602
C         41.58722        42.57630        -0.14812
C         42.89562        44.77342         0.45507
C         41.58241        43.97198         0.48286
C         42.76222        46.38334         0.40625
C         41.43402        46.87189        -0.22523
C         42.48834        49.15178        -0.46610
C         41.30975        48.31010        -0.76970
C         43.54040        25.40543         0.11654
C         45.29578        27.21017        -0.77168
C         43.93148        26.57771        -0.58006
C         45.22900        28.68410        -0.27347
C         44.06460        29.36448        -0.48792
C         45.19109        31.50478        -0.22635
C         43.91819        30.74998         0.14477
C         45.08235        32.76489        -0.71402
C         44.03263        33.71524        -0.17119
C         45.39094        35.93517        -0.21348
C         44.13232        35.17985        -0.71994
C         45.50901        37.37508        -0.72471
C         44.15101        38.14775        -0.63648
C         45.40754        40.28626         0.05846
C         44.11132        39.55544        -0.12100
C         45.36587        41.79654        -0.09830
C         44.07064        42.35975         0.53670
C         45.38585        44.43539        -0.21045
C         44.12785        43.88958         0.36945
C         45.18495        46.72723        -0.58228
C         44.02225        47.24861        -0.08212
C         43.56053        48.58407        -0.18226
C         47.53110        27.19974         0.20074
C         46.47730        26.61317        -0.05532
C         47.80072        28.60221         0.51061
C         46.46483        29.36629         0.29500
C         47.83739        31.60163        -0.01231
C         46.50183        30.86725         0.12319
C         47.89962        33.09353         0.20598
C         46.94812        33.86875        -0.34779
C         48.03662        35.99818         0.12615
C         46.71022        35.27829        -0.00140
C         47.84331        37.49293         0.29965
C         46.71353        38.11708        -0.12701
C         47.98554        40.33753        -0.13984
C         46.66872        39.59907        -0.45420
C         47.93925        41.86628        -0.21849
C         46.64986        42.47610         0.48271
C         47.92385        44.84280         0.24564
C         46.62732        43.97386         0.11648
C         47.54810        46.16881        -0.34204
C         46.59876        46.96022        -0.40810
C         50.47107        28.87669         0.24696
C         49.09619        29.34309         0.53693
C         50.36032        31.67731         0.52296
C         49.10694        30.85164         0.23170
C         50.19612        32.96744         1.33217
C         48.92298        33.74313         1.08700
C         50.22887        35.97529         1.38201
C         48.84010        35.29544         1.27455
C         50.31998        37.38757         0.77510
C         49.02997        38.22116         0.92719
C         50.45605        40.39115         0.67055
C         49.20171        39.61903         0.34309
C         50.53507        41.83710         0.10081
C         49.20187        42.58948         0.36271
C         50.53084        44.59892         0.18707
C         49.18189        44.14776        -0.29109
C         51.50585        29.55079         0.28388
C         52.73687        31.75085         1.12108
C         51.74278        30.99127         0.36337
C         52.62054        32.92074         1.50223
C         51.46336        33.69593         2.03494
C         52.66208        35.94774         1.30846
C         51.47424        35.19441         1.75795
C         52.70350        37.16759         1.10204
C         51.66361        38.09014         0.62930
C         52.87991        40.45338         0.45113
C         51.73159        39.57908         0.76007
C         52.93232        41.68301         0.35358
C         51.80805        42.62383         0.71107
C         51.63127        44.02159         0.21318
O         35.23119        32.14920         1.14207
O         36.59608        35.31503         1.59684
O         36.21479        30.28007        -1.95945
O         45.05012        45.44515        -1.11378
O         48.96924        39.75234        -1.08724
O         48.63187        31.10467        -1.13033
O         41.64045        25.35886        -1.75187
O         37.80992        40.31405         1.25161
O         37.49713        45.40803         1.67674
O         43.40579        37.88839        -1.86335
O         49.11182        32.95001         2.30139
O         42.43808        42.51508        -1.34062
O         38.49546        33.44888         1.05031
O         32.09333        32.86765        -1.04139
O         34.69580        41.18451        -1.47510
O         36.90317        37.68276        -1.67193
O         42.23973        32.34969         0.88460
O         50.72839        35.93978         2.76200
O         39.08511        43.76157        -1.29994
O         44.77328        39.68086         1.20292
O         41.49661        47.16546        -1.64628
O         43.73882        44.51039         1.63109
O         50.95953        37.54271        -0.51885
O         51.05549        40.09445         1.95105
O         34.05057        28.49205        -1.14976
O         45.83315        37.20784        -2.10087
O         36.51853        37.81234         1.93181
O         31.97749        34.27508         2.48469
O         40.89283        44.12656         1.76473
O         46.30105        30.24354         1.45103
O         48.45980        28.94020         1.75509
O         40.78419        33.30407        -2.03018
O         39.29447        26.47166        -1.37319
O         45.81932        35.62703         1.12332
O         38.75709        29.66705        -2.83811
O         46.16843        33.32794        -1.37422
O         39.56282        46.91184         1.45405
O         51.18426        31.77762        -0.68916
O         39.06654        38.93028        -1.91484
O         41.59393        30.56418        -2.34631
O         36.39835        33.86714        -1.84637
H         35.62298        34.42405        -2.09393
O         33.64823        31.00426        -2.04586
H         34.36848        30.43922        -2.41593
O         51.35121        33.48924         3.42277
H         51.10768        34.33820         3.85311
O         35.49132        40.96044         2.12538
H         36.44171        40.96392         2.38316
O         41.48506        35.75452        -2.22149
H         42.35638        35.56095        -2.64450
O         48.11500        45.04189         1.64970
H         47.37937        45.58700         1.99767
O         48.74559        38.38340         2.32491
H         48.48466        37.50478         2.69409
O         42.85255        35.95250         1.18782
H         43.39599        35.20603         1.54265
O         47.86515        42.14655        -1.62016
H         47.63724        41.31902        -2.10365
O         46.55689        39.70003        -1.91051
H         46.30947        38.78925        -2.27894
O         40.43629        35.69044         1.25192
H         39.62725        36.00368         1.70818
O         49.17645        44.16516        -1.68032
H         49.91505        43.60552        -2.00854
O         38.87636        31.06358        -3.15699
H         39.85716        31.19046        -3.26441
O         35.49600        43.87935         1.39019
H         35.73964        44.70892         1.86743
O         43.93074        42.02724         1.90951
H         44.80876        42.13155         2.34707
O         42.61213        46.75509         1.77337
H         43.17476        46.17016         2.32894
O         37.50791        36.92759        -2.74488
H         38.17491        37.56757        -3.10625
O         45.22858        42.08765        -1.49526
H         45.65754        41.37549        -2.02635
O         37.69010        41.67185        -2.18997
H         37.85549        42.55421        -2.58749
O         48.80800        35.78911        -1.06775
H         48.40729        36.30676        -1.80009
O         34.37814        34.54981         2.44302
H         35.34317        34.41947         2.59806
O         45.57624        27.23424        -2.15988
H         45.40359        26.35316        -2.54984
O         32.91799        38.57978         3.35799
H         32.89007        37.75132         3.87744
O         48.14395        35.55724         2.49693
H         48.40893        34.87558         3.15332
O         43.74759        30.54960         1.56017
H         44.63269        30.32521         1.94323
O         46.60546        42.19690         1.88017
H         47.42528        42.55909         2.29993
O         41.72343        23.41410         2.52737
H         40.84336        23.22207         2.90761
O         50.75459        41.75896        -1.30826
H         50.12384        41.09120        -1.67873
O         43.46010        28.89935        -2.75315
H         43.11192        29.74852        -3.11275
O         44.17862        35.14288        -2.14536
H         44.72413        35.94179        -2.44210
O         30.43857        30.40876        -0.94255
H         30.02116        31.15074        -1.42391
O         51.71901        42.64668         2.11977
H         52.46329        43.16894         2.48372
O         33.35097        43.21163        -2.70590
H         32.63281        42.53773        -2.72469
O         33.87783        34.69937        -1.18401
H         33.28646        34.15453        -1.76146
O         37.72502        31.00977         1.20671
H         38.16821        31.70632         1.74948
O         37.32733        27.76263        -2.11774
H         37.30586        28.36397        -2.89756
O         31.06183        41.65208        -1.76612
H         30.16057        41.94215        -2.01839
O         49.07668        42.67883         1.77425
H         49.96131        42.87408         2.17580
O         44.30574        33.73357         1.24848
H         43.77369        33.00156         1.65617
O         31.98815        37.84148        -0.07512
H         31.24017        37.21184        -0.09248
